Circuit: * C:\Users\ashle\OneDrive\Documents\ELECTENG 310\Design-Simulation - part 2\Assignment2.asc

Limiting rise time of source i1 to 1.25e-006
Limiting fall time of source i1 to 1.25e-006
WARNING: Less than two connections to node VIN.  This node is used by V3.
WARNING: Less than two connections to node NC_02.  This node is used by Q:U1:_LM358:1.
WARNING: Less than two connections to node NC_01.  This node is used by Q:U1:_LM358:2.
Direct Newton iteration for .op point succeeded.
Heightened Def Con from 1.375e-005 to 1.375e-005
Heightened Def Con from 1.375e-005 to 1.375e-005
Heightened Def Con from 3.875e-005 +to 3.875e-005
Heightened Def Con from 3.875e-005 to 3.875e-005
Heightened Def Con from 3.875e-005 to 3.875e-005
Heightened Def Con from 3.875e-005 +to 3.875e-005
Heightened Def Con from 3.875e-005 +to 3.875e-005
Heightened Def Con from 3.875e-005 ++to 3.875e-005
Heightened Def Con from 3.875e-005 to 3.875e-005
Heightened Def Con from 6.375e-005 to 6.375e-005
Heightened Def Con from 6.375e-005 to 6.375e-005
Heightened Def Con from 6.375e-005 +to 6.375e-005
Heightened Def Con from 6.375e-005 to 6.3752e-005
Heightened Def Con from 8.875e-005 to 8.875e-005
Heightened Def Con from 8.875e-005 to 8.875e-005
Heightened Def Con from 8.875e-005 to 8.875e-005
Heightened Def Con from 8.875e-005 to 8.8752e-005
Heightened Def Con from 0.00010125 to 0.00010125
Heightened Def Con from 0.00010125 to 0.000101252
Heightened Def Con from 0.00011375 to 0.00011375
Heightened Def Con from 0.00011375 to 0.000113752
Heightened Def Con from 0.00013875 to 0.00013875
Heightened Def Con from 0.00013875 to 0.00013875
Heightened Def Con from 0.00015125 to 0.00015125
Heightened Def Con from 0.00016375 to 0.00016375
Heightened Def Con from 0.00016375 to 0.00016375
Heightened Def Con from 0.00016375 to 0.00016375
Heightened Def Con from 0.00016375 to 0.000163752
Heightened Def Con from 0.00017625 to 0.000176252
Heightened Def Con from 0.00018875 to 0.00018875
Heightened Def Con from 0.00018875 to 0.00018875
Heightened Def Con from 0.00018875 to 0.00018875
Heightened Def Con from 0.00021375 to 0.00021375
Heightened Def Con from 0.00021375 to 0.00021375
Heightened Def Con from 0.00021375 to 0.00021375
Heightened Def Con from 0.00021375 ++to 0.00021375
Heightened Def Con from 0.00021375 +to 0.00021375
Heightened Def Con from 0.00021375 to 0.00021375
Heightened Def Con from 0.00022625 to 0.000226252
Heightened Def Con from 0.00023875 to 0.00023875
Heightened Def Con from 0.00023875 to 0.00023875
Heightened Def Con from 0.00023875 to 0.00023875
Heightened Def Con from 0.00023875 to 0.00023875
Heightened Def Con from 0.00023875 to 0.000238752
Heightened Def Con from 0.00025125 to 0.00025125
Heightened Def Con from 0.00025125 to 0.00025125
Heightened Def Con from 0.00025125 to 0.00025125
Heightened Def Con from 0.00026375 to 0.00026375
Heightened Def Con from 0.00026375 to 0.00026375
Heightened Def Con from 0.00026375 to 0.00026375
Heightened Def Con from 0.00026375 to 0.00026375
Heightened Def Con from 0.00028875 to 0.00028875
Heightened Def Con from 0.00028875 to 0.00028875
Heightened Def Con from 0.00028875 to 0.00028875
Heightened Def Con from 0.00028875 to 0.000288752
Heightened Def Con from 0.00031375 to 0.00031375
Heightened Def Con from 0.00031375 to 0.00031375
Heightened Def Con from 0.00031375 to 0.000313752
Heightened Def Con from 0.00032625 to 0.00032625
Heightened Def Con from 0.00033875 to 0.00033875
Heightened Def Con from 0.00033875 to 0.00033875
Heightened Def Con from 0.00033875 to 0.00033875
Heightened Def Con from 0.00033875 to 0.00033875
Heightened Def Con from 0.00033875 to 0.00033875
Heightened Def Con from 0.00033875 to 0.00033875
Heightened Def Con from 0.00033875 +to 0.00033875
Heightened Def Con from 0.00036375 to 0.00036375
Heightened Def Con from 0.00036375 to 0.00036375
Heightened Def Con from 0.00036375 +to 0.00036375
Heightened Def Con from 0.00036375 to 0.00036375
Heightened Def Con from 0.00036375 to 0.00036375
Heightened Def Con from 0.00036375 to 0.00036375
Heightened Def Con from 0.00038875 to 0.00038875
Heightened Def Con from 0.00038875 to 0.00038875
Heightened Def Con from 0.00038875 to 0.00038875
Heightened Def Con from 0.00038875 to 0.000388752
Heightened Def Con from 0.00040125 to 0.00040125
Heightened Def Con from 0.00041375 to 0.00041375
Heightened Def Con from 0.00041375 +to 0.00041375
Heightened Def Con from 0.00041375 to 0.00041375
Heightened Def Con from 0.00041375 ++++to 0.00041375
Heightened Def Con from 0.00041375 to 0.00041375
Heightened Def Con from 0.00042625 to 0.00042625
Heightened Def Con from 0.00042625 to 0.00042625
Heightened Def Con from 0.00042625 to 0.00042625
Heightened Def Con from 0.00043875 to 0.00043875
Heightened Def Con from 0.00043875 +to 0.00043875
Heightened Def Con from 0.00043875 to 0.00043875
Heightened Def Con from 0.00043875 to 0.00043875
Heightened Def Con from 0.00043875 to 0.00043875
Heightened Def Con from 0.00043875 to 0.000438752
Heightened Def Con from 0.00045125 to 0.000451252
Heightened Def Con from 0.00046375 to 0.00046375
Heightened Def Con from 0.00046375 +++to 0.00046375
Heightened Def Con from 0.00046375 +++to 0.00046375
Heightened Def Con from 0.00046375 to 0.00046375
Heightened Def Con from 0.00046375 to 0.00046375
Heightened Def Con from 0.00048875 to 0.00048875
Heightened Def Con from 0.00048875 to 0.00048875
Heightened Def Con from 0.00048875 to 0.00048875
Heightened Def Con from 0.00048875 to 0.00048875
Heightened Def Con from 0.00048875 to 0.00048875
Heightened Def Con from 0.00048875 to 0.00048875
Heightened Def Con from 0.00048875 to 0.00048875
Heightened Def Con from 0.00050125 to 0.00050125
Heightened Def Con from 0.00050125 to 0.00050125
Heightened Def Con from 0.00050125 to 0.00050125
Heightened Def Con from 0.00051375 to 0.00051375
Heightened Def Con from 0.00051375 to 0.00051375
Heightened Def Con from 0.00051375 to 0.000513752
Heightened Def Con from 0.00052625 to 0.00052625
Heightened Def Con from 0.00053875 to 0.00053875
Heightened Def Con from 0.00053875 to 0.00053875
Heightened Def Con from 0.00053875 to 0.00053875
Heightened Def Con from 0.00053875 to 0.000538752
Heightened Def Con from 0.00056375 to 0.00056375
Heightened Def Con from 0.00056375 to 0.00056375
Heightened Def Con from 0.00056375 to 0.00056375
Heightened Def Con from 0.00056375 to 0.00056375
Heightened Def Con from 0.00056375 to 0.00056375
Heightened Def Con from 0.00056375 to 0.00056375
Heightened Def Con from 0.00056375 to 0.000563752
Heightened Def Con from 0.00057625 to 0.00057625
Heightened Def Con from 0.00057625 to 0.000576252
Heightened Def Con from 0.00058875 to 0.00058875
Heightened Def Con from 0.00061375 to 0.00061375
Heightened Def Con from 0.00061375 to 0.00061375
Heightened Def Con from 0.00061375 to 0.000613752
Heightened Def Con from 0.00063875 to 0.00063875
Heightened Def Con from 0.00063875 to 0.00063875
Heightened Def Con from 0.00063875 to 0.00063875
Heightened Def Con from 0.00063875 to 0.000638752
Heightened Def Con from 0.00066375 to 0.00066375
Heightened Def Con from 0.00068875 to 0.00068875
Heightened Def Con from 0.00068875 to 0.00068875
Heightened Def Con from 0.00071375 to 0.00071375
Heightened Def Con from 0.00071375 to 0.00071375
Heightened Def Con from 0.00071375 to 0.00071375
Heightened Def Con from 0.00072625 to 0.00072625
Heightened Def Con from 0.00072625 to 0.000726252
Heightened Def Con from 0.00073875 to 0.00073875
Heightened Def Con from 0.00073875 to 0.000738752
Heightened Def Con from 0.00076375 to 0.00076375
Heightened Def Con from 0.00076375 to 0.00076375
Heightened Def Con from 0.00076375 to 0.00076375
Heightened Def Con from 0.00076375 to 0.000763752
Heightened Def Con from 0.00077625 to 0.00077625
Heightened Def Con from 0.00077625 to 0.000776252
Heightened Def Con from 0.00078875 to 0.00078875
Heightened Def Con from 0.00078875 to 0.00078875
Heightened Def Con from 0.00078875 to 0.000788752
Heightened Def Con from 0.00080125 to 0.00080125
Heightened Def Con from 0.00081375 to 0.00081375
Heightened Def Con from 0.00081375 to 0.00081375
Heightened Def Con from 0.00081375 to 0.00081375
Heightened Def Con from 0.00081375 to 0.00081375
Heightened Def Con from 0.00081375 ++to 0.00081375
Heightened Def Con from 0.00081375 to 0.00081375
Heightened Def Con from 0.00081375 to 0.00081375
Heightened Def Con from 0.00083875 to 0.00083875
Heightened Def Con from 0.00083875 to 0.000838752
Heightened Def Con from 0.00086375 ++to 0.00086375
Heightened Def Con from 0.00086375 ++to 0.00086375
Heightened Def Con from 0.00086375 ++to 0.00086375
Heightened Def Con from 0.00086375 to 0.00086375
Heightened Def Con from 0.00086375 to 0.00086375
Heightened Def Con from 0.00086375 to 0.000863752
Heightened Def Con from 0.00087625 to 0.00087625
Heightened Def Con from 0.00087625 to 0.00087625
Heightened Def Con from 0.00088875 to 0.00088875
Heightened Def Con from 0.00088875 to 0.00088875
Heightened Def Con from 0.00091375 to 0.00091375
Heightened Def Con from 0.00091375 to 0.00091375
Heightened Def Con from 0.00091375 to 0.00091375
Heightened Def Con from 0.00091375 ++to 0.00091375
Heightened Def Con from 0.00091375 +to 0.00091375
Heightened Def Con from 0.00091375 to 0.00091375
Heightened Def Con from 0.00091375 +to 0.00091375
Heightened Def Con from 0.00091375 +to 0.00091375
Heightened Def Con from 0.00091375 +to 0.00091375
Heightened Def Con from 0.00091375 +to 0.00091375
Heightened Def Con from 0.00091375 to 0.00091375
Heightened Def Con from 0.00091375 +++to 0.00091375
Heightened Def Con from 0.00091375 ++to 0.00091375
Heightened Def Con from 0.00091375 ++to 0.00091375
Heightened Def Con from 0.00091375 to 0.00091375
Heightened Def Con from 0.00091375 to 0.000913752
Heightened Def Con from 0.00093875 to 0.00093875
Heightened Def Con from 0.00093875 to 0.00093875
Heightened Def Con from 0.00093875 to 0.000938752
Heightened Def Con from 0.00096375 to 0.00096375
Heightened Def Con from 0.00096375 ++to 0.00096375
Heightened Def Con from 0.00096375 ++to 0.00096375
Heightened Def Con from 0.00096375 +to 0.00096375
Heightened Def Con from 0.00096375 to 0.00096375
Heightened Def Con from 0.00096375 to 0.00096375
Heightened Def Con from 0.00097625 to 0.00097625
Heightened Def Con from 0.00098875 to 0.00098875
Heightened Def Con from 0.00098875 to 0.00098875
Heightened Def Con from 0.00098875 to 0.00098875
Heightened Def Con from 0.00098875 to 0.00098875
Heightened Def Con from 0.00098875 to 0.000988752
Heightened Def Con from 0.00101375 to 0.00101375
Heightened Def Con from 0.00101375 to 0.00101375
Heightened Def Con from 0.00101375 to 0.00101375
Heightened Def Con from 0.00102625 to 0.00102625
Heightened Def Con from 0.00103875 to 0.00103875
Heightened Def Con from 0.00103875 to 0.00103875
Heightened Def Con from 0.00103875 to 0.00103875
Heightened Def Con from 0.00105125 to 0.00105125
Heightened Def Con from 0.00106375 to 0.00106375
Heightened Def Con from 0.00106375 ++to 0.00106375
Heightened Def Con from 0.00106375 ++to 0.00106375
Heightened Def Con from 0.00106375 to 0.00106375
Heightened Def Con from 0.00108875 to 0.00108875
Heightened Def Con from 0.00108875 ++to 0.00108875
Heightened Def Con from 0.00108875 ++to 0.00108875
Heightened Def Con from 0.00108875 ++to 0.00108875
Heightened Def Con from 0.00108875 to 0.00108875
Heightened Def Con from 0.00108875 to 0.00108875
Heightened Def Con from 0.00111375 ++to 0.00111375
Heightened Def Con from 0.00111375 ++to 0.00111375
Heightened Def Con from 0.00111375 to 0.00111375
Heightened Def Con from 0.00111375 to 0.00111375
Heightened Def Con from 0.00111375 to 0.00111375
Heightened Def Con from 0.00112625 to 0.00112625
Heightened Def Con from 0.00113875 to 0.00113875
Heightened Def Con from 0.00113875 +to 0.00113875
Heightened Def Con from 0.00113875 to 0.00113875
Heightened Def Con from 0.00115125 to 0.00115125
Heightened Def Con from 0.00116375 to 0.00116375
Heightened Def Con from 0.00116375 to 0.00116375
Heightened Def Con from 0.00117625 to 0.00117625
Heightened Def Con from 0.00118875 +to 0.00118875
Heightened Def Con from 0.00118875 +to 0.00118875
Heightened Def Con from 0.00121375 +to 0.00121375
Heightened Def Con from 0.00121375 ++to 0.00121375
Heightened Def Con from 0.00121375 ++to 0.00121375
Heightened Def Con from 0.00121375 to 0.00121375
Heightened Def Con from 0.00121375 to 0.00121375
Heightened Def Con from 0.00122625 to 0.00122625
Heightened Def Con from 0.00123875 to 0.00123875
Heightened Def Con from 0.00123875 to 0.00123875
Heightened Def Con from 0.00123875 to 0.00123875
Heightened Def Con from 0.00126375 +to 0.00126375
Heightened Def Con from 0.00126375 +to 0.00126375
Heightened Def Con from 0.00126375 to 0.00126375
Heightened Def Con from 0.00126375 +to 0.00126375
Heightened Def Con from 0.00126375 to 0.00126375
Heightened Def Con from 0.00126375 to 0.00126375
Heightened Def Con from 0.00127625 to 0.00127625
Heightened Def Con from 0.00128875 +++to 0.00128875
Heightened Def Con from 0.00128875 ++to 0.00128875
Heightened Def Con from 0.00128875 to 0.00128875
Heightened Def Con from 0.00128875 to 0.00128875
Heightened Def Con from 0.00130125 to 0.00130125
Heightened Def Con from 0.00131375 to 0.00131375
Heightened Def Con from 0.00131375 to 0.00131375
Heightened Def Con from 0.00131375 to 0.00131375
Heightened Def Con from 0.00131375 to 0.00131375
Heightened Def Con from 0.00132625 to 0.00132625
Heightened Def Con from 0.00133875 to 0.00133875
Heightened Def Con from 0.00133875 to 0.00133875
Heightened Def Con from 0.00136375 to 0.00136375
Heightened Def Con from 0.00136375 to 0.00136375
Heightened Def Con from 0.00137625 to 0.00137625
Heightened Def Con from 0.00138875 +to 0.00138875
Heightened Def Con from 0.00138875 ++to 0.00138875
Heightened Def Con from 0.00138875 to 0.00138875
Heightened Def Con from 0.00141375 to 0.00141375
Heightened Def Con from 0.00141375 to 0.00141375
Heightened Def Con from 0.00141375 to 0.00141375
Heightened Def Con from 0.00142625 to 0.00142625
Heightened Def Con from 0.00143875 to 0.00143875
Heightened Def Con from 0.00143875 to 0.00143875
Heightened Def Con from 0.00143875 to 0.00143875
Heightened Def Con from 0.00145125 to 0.00145125
Heightened Def Con from 0.00146375 to 0.00146375
Heightened Def Con from 0.00146375 to 0.00146375
Heightened Def Con from 0.00146375 to 0.00146375
Heightened Def Con from 0.00147625 to 0.00147625
Heightened Def Con from 0.00147625 to 0.00147625
Heightened Def Con from 0.00148875 to 0.00148875
Heightened Def Con from 0.00148875 to 0.00148875
Heightened Def Con from 0.00148875 to 0.00148875
Heightened Def Con from 0.00148875 to 0.00148875
Heightened Def Con from 0.00151375 to 0.00151375
Heightened Def Con from 0.00151375 ++++to 0.00151375
Heightened Def Con from 0.00151375 to 0.00151375
Heightened Def Con from 0.00151375 to 0.00151375
Heightened Def Con from 0.00152625 to 0.00152625
Heightened Def Con from 0.00153875 to 0.00153875
Heightened Def Con from 0.00153875 to 0.00153875
Heightened Def Con from 0.00153875 to 0.00153875
Heightened Def Con from 0.00156375 to 0.00156375
Heightened Def Con from 0.00156375 to 0.00156375
Heightened Def Con from 0.00157625 to 0.00157625
Heightened Def Con from 0.00158875 ++++to 0.00158875
Heightened Def Con from 0.00158875 to 0.00158875
Heightened Def Con from 0.00158875 to 0.00158875
Heightened Def Con from 0.00160125 to 0.00160125
Heightened Def Con from 0.00161375 to 0.00161375
Heightened Def Con from 0.00161375 to 0.00161375
Heightened Def Con from 0.00161375 to 0.00161375
Heightened Def Con from 0.00163875 to 0.00163875
Heightened Def Con from 0.00163875 +++to 0.00163875
Heightened Def Con from 0.00163875 ++to 0.00163875
Heightened Def Con from 0.00163875 ++to 0.00163875
Heightened Def Con from 0.00163875 to 0.00163875
Heightened Def Con from 0.00163875 to 0.00163875
Heightened Def Con from 0.00165125 to 0.00165125
Heightened Def Con from 0.00165125 to 0.00165125
Heightened Def Con from 0.00166375 ++to 0.00166375
Heightened Def Con from 0.00166375 +++to 0.00166375
Heightened Def Con from 0.00166375 +++to 0.00166375
Heightened Def Con from 0.00166375 to 0.00166375
Heightened Def Con from 0.00167625 to 0.00167625
Heightened Def Con from 0.00168875 ++to 0.00168875
Heightened Def Con from 0.00168875 ++to 0.00168875
Heightened Def Con from 0.00168875 ++to 0.00168875
Heightened Def Con from 0.00168875 to 0.00168875
Heightened Def Con from 0.00168875 to 0.00168875
Heightened Def Con from 0.00171375 to 0.00171375
Heightened Def Con from 0.00171375 to 0.00171375
Heightened Def Con from 0.00172625 to 0.00172625
Heightened Def Con from 0.00173875 +to 0.00173875
Heightened Def Con from 0.00173875 +to 0.00173875
Heightened Def Con from 0.00173875 to 0.00173875
Heightened Def Con from 0.00173875 to 0.00173875
Heightened Def Con from 0.00175125 to 0.00175125
Heightened Def Con from 0.00176375 ++to 0.00176375
Heightened Def Con from 0.00176375 +++++to 0.00176375
Heightened Def Con from 0.00176375 +++++to 0.00176375
Heightened Def Con from 0.00176375 to 0.00176375
Heightened Def Con from 0.00178875 to 0.00178875
Heightened Def Con from 0.00178875 to 0.00178875
Heightened Def Con from 0.00180125 to 0.00180125
Heightened Def Con from 0.00181375 to 0.00181375
Heightened Def Con from 0.00181375 to 0.00181375
Heightened Def Con from 0.00181375 to 0.00181375
Heightened Def Con from 0.00183875 +to 0.00183875
Heightened Def Con from 0.00183875 +++to 0.00183875
Heightened Def Con from 0.00183875 ++to 0.00183875
Heightened Def Con from 0.00183875 +++to 0.00183875
Heightened Def Con from 0.00183875 +++to 0.00183875
Heightened Def Con from 0.00183875 ++++to 0.00183875
Heightened Def Con from 0.00183875 ++++to 0.00183875
Heightened Def Con from 0.00183875 +++to 0.00183875
Heightened Def Con from 0.00183875 to 0.00183875
Heightened Def Con from 0.00183875 to 0.00183875
Heightened Def Con from 0.00186375 to 0.00186375
Heightened Def Con from 0.00186375 +to 0.00186375
Heightened Def Con from 0.00186375 ++++to 0.00186375
Heightened Def Con from 0.00186375 to 0.00186375
Heightened Def Con from 0.00186375 to 0.00186375
Heightened Def Con from 0.00188875 ++++to 0.00188875
Heightened Def Con from 0.00188875 to 0.00188875
Heightened Def Con from 0.00188875 to 0.00188875
Heightened Def Con from 0.00190125 to 0.00190125
Heightened Def Con from 0.00191375 +to 0.00191375
Heightened Def Con from 0.00191375 ++to 0.00191375
Heightened Def Con from 0.00191375 to 0.00191375
Heightened Def Con from 0.00192625 to 0.00192625
Heightened Def Con from 0.00192625 to 0.00192625
Heightened Def Con from 0.00193875 to 0.00193875
Heightened Def Con from 0.00193875 to 0.00193875
Heightened Def Con from 0.00193875 to 0.00193875
Heightened Def Con from 0.00195125 to 0.00195125
Heightened Def Con from 0.00196375 to 0.00196375
Heightened Def Con from 0.00196375 to 0.00196375
Heightened Def Con from 0.00196375 to 0.00196375
Heightened Def Con from 0.00198875 +to 0.00198875
Heightened Def Con from 0.00198875 +++to 0.00198875
Heightened Def Con from 0.00198875 ++to 0.00198875
Heightened Def Con from 0.00198875 to 0.00198875
Heightened Def Con from 0.00198875 to 0.00198875
Heightened Def Con from 0.00201375 ++to 0.00201375
Heightened Def Con from 0.00201375 ++to 0.00201375
Heightened Def Con from 0.00201375 to 0.00201375
Heightened Def Con from 0.00201375 to 0.00201375
Heightened Def Con from 0.00202625 to 0.00202625
Heightened Def Con from 0.00203875 +to 0.00203875
Heightened Def Con from 0.00203875 to 0.00203875
Heightened Def Con from 0.00203875 to 0.00203875
Heightened Def Con from 0.00203875 to 0.00203875
Heightened Def Con from 0.00205125 to 0.00205125
Heightened Def Con from 0.00206375 to 0.00206375
Heightened Def Con from 0.00206375 to 0.00206375
Heightened Def Con from 0.00207625 to 0.00207625
Heightened Def Con from 0.00208875 ++to 0.00208875
Heightened Def Con from 0.00208875 +++to 0.00208875
Heightened Def Con from 0.00208875 +++to 0.00208875
Heightened Def Con from 0.00208875 to 0.00208875
Heightened Def Con from 0.00210125 to 0.00210125
Heightened Def Con from 0.00210125 to 0.00210125
Heightened Def Con from 0.00211375 to 0.00211375
Heightened Def Con from 0.00211375 +++to 0.00211375
Heightened Def Con from 0.00211375 ++to 0.00211375
Heightened Def Con from 0.00211375 +to 0.00211375
Heightened Def Con from 0.00211375 to 0.00211375
Heightened Def Con from 0.00211375 to 0.00211375
Heightened Def Con from 0.00212625 to 0.00212625
Heightened Def Con from 0.00212625 to 0.00212625
Heightened Def Con from 0.00213875 to 0.00213875
Heightened Def Con from 0.00213875 to 0.00213875
Heightened Def Con from 0.00215125 to 0.00215125
Heightened Def Con from 0.00216375 to 0.00216375
Heightened Def Con from 0.00216375 to 0.00216375
Heightened Def Con from 0.00216375 +to 0.00216375
Heightened Def Con from 0.00216375 +to 0.00216375
Heightened Def Con from 0.00216375 ++to 0.00216375
Heightened Def Con from 0.00216375 to 0.00216375
Heightened Def Con from 0.00216375 to 0.00216375
Heightened Def Con from 0.00217625 to 0.00217625
Heightened Def Con from 0.00218875 to 0.00218875
Heightened Def Con from 0.00218875 to 0.00218875
Heightened Def Con from 0.00218875 to 0.00218875
Heightened Def Con from 0.00220125 to 0.00220125
Heightened Def Con from 0.00221375 ++to 0.00221375
Heightened Def Con from 0.00221375 ++to 0.00221375
Heightened Def Con from 0.00221375 +to 0.00221375
Heightened Def Con from 0.00221375 to 0.00221375
Heightened Def Con from 0.00222625 to 0.00222625
Heightened Def Con from 0.00223875 to 0.00223875
Heightened Def Con from 0.00223875 to 0.00223875
Heightened Def Con from 0.00223875 to 0.00223875
Heightened Def Con from 0.00223875 to 0.00223875
Heightened Def Con from 0.00225125 to 0.00225125
Heightened Def Con from 0.00226375 to 0.00226375
Heightened Def Con from 0.00226375 ++to 0.00226375
Heightened Def Con from 0.00226375 ++++to 0.00226375
Heightened Def Con from 0.00226375 +++to 0.00226375
Heightened Def Con from 0.00226375 to 0.00226375
Heightened Def Con from 0.00226375 to 0.00226375
Heightened Def Con from 0.00227625 to 0.00227625
Heightened Def Con from 0.00227625 to 0.00227625
Heightened Def Con from 0.00227625 to 0.00227625
Heightened Def Con from 0.00228875 +to 0.00228875
Heightened Def Con from 0.00228875 +to 0.00228875
Heightened Def Con from 0.00228875 ++to 0.00228875
Heightened Def Con from 0.00228875 +to 0.00228875
Heightened Def Con from 0.00230125 to 0.00230125
Heightened Def Con from 0.00231375 to 0.00231375
Heightened Def Con from 0.00231375 +to 0.00231375
Heightened Def Con from 0.00231375 to 0.00231375
Heightened Def Con from 0.00232625 to 0.00232625
Heightened Def Con from 0.00233875 to 0.00233875
Heightened Def Con from 0.00233875 +to 0.00233875
Heightened Def Con from 0.00233875 +to 0.00233875
Heightened Def Con from 0.00236375 +to 0.00236375
Heightened Def Con from 0.00236375 +to 0.00236375
Heightened Def Con from 0.00236375 to 0.00236375
Heightened Def Con from 0.00236375 to 0.00236375
Heightened Def Con from 0.00237625 to 0.00237625
Heightened Def Con from 0.00237625 to 0.00237625
Heightened Def Con from 0.00238875 to 0.00238875
Heightened Def Con from 0.00238875 to 0.00238875
Heightened Def Con from 0.00238875 to 0.00238875
Heightened Def Con from 0.00238875 to 0.00238875
Heightened Def Con from 0.00240125 to 0.00240125
Heightened Def Con from 0.00241375 to 0.00241375
Heightened Def Con from 0.00241375 to 0.00241375
Heightened Def Con from 0.00241375 to 0.00241375
Heightened Def Con from 0.00242625 to 0.00242625
Heightened Def Con from 0.00243875 +++to 0.00243875
Heightened Def Con from 0.00243875 ++++to 0.00243875
Heightened Def Con from 0.00243875 +++to 0.00243875
Heightened Def Con from 0.00243875 to 0.00243875
Heightened Def Con from 0.00243875 to 0.00243875
Heightened Def Con from 0.00245125 to 0.00245125
Heightened Def Con from 0.00246375 to 0.00246375
Heightened Def Con from 0.00247625 to 0.00247625
Heightened Def Con from 0.00248875 +to 0.00248875
Heightened Def Con from 0.00248875 ++to 0.00248875
Heightened Def Con from 0.00248875 to 0.00248875
Heightened Def Con from 0.00248875 to 0.00248875
Heightened Def Con from 0.00251375 to 0.00251375
Heightened Def Con from 0.00251375 to 0.00251375
Heightened Def Con from 0.00251375 to 0.00251375
Heightened Def Con from 0.00251375 to 0.00251375
Heightened Def Con from 0.00253875 ++++to 0.00253875
Heightened Def Con from 0.00253875 to 0.00253875
Heightened Def Con from 0.00253875 to 0.00253875
Heightened Def Con from 0.00255125 to 0.00255125
Heightened Def Con from 0.00256375 ++to 0.00256375
Heightened Def Con from 0.00256375 ++++to 0.00256375
Heightened Def Con from 0.00256375 +++++to 0.00256375
Heightened Def Con from 0.00256375 ++++++to 0.00256375
Heightened Def Con from 0.00256375 ++++++to 0.00256375
Heightened Def Con from 0.00256375 to 0.00256375
Heightened Def Con from 0.00257625 to 0.00257625
Heightened Def Con from 0.00258875 +to 0.00258875
Heightened Def Con from 0.00258875 ++to 0.00258875
Heightened Def Con from 0.00258875 ++to 0.00258875
Heightened Def Con from 0.00258875 to 0.00258875
Heightened Def Con from 0.00261375 +to 0.00261375
Heightened Def Con from 0.00261375 +to 0.00261375
Heightened Def Con from 0.00261375 +to 0.00261375
Heightened Def Con from 0.00261375 +to 0.00261375
Heightened Def Con from 0.00261375 to 0.00261375
Heightened Def Con from 0.00262625 to 0.00262625
Heightened Def Con from 0.00262625 to 0.00262625
Heightened Def Con from 0.00263875 to 0.00263875
Heightened Def Con from 0.00263875 to 0.00263875
Heightened Def Con from 0.00263875 to 0.00263875
Heightened Def Con from 0.00263875 to 0.00263875
Heightened Def Con from 0.00263875 to 0.00263875
Heightened Def Con from 0.00265125 to 0.00265125
Heightened Def Con from 0.00266375 to 0.00266375
Heightened Def Con from 0.00266375 +to 0.00266375
Heightened Def Con from 0.00266375 +to 0.00266375
Heightened Def Con from 0.00266375 +to 0.00266375
Heightened Def Con from 0.00266375 to 0.00266375
Heightened Def Con from 0.00266375 to 0.00266375
Heightened Def Con from 0.00266375 to 0.00266375
Heightened Def Con from 0.00266375 to 0.00266375
Heightened Def Con from 0.00267625 to 0.00267625
Heightened Def Con from 0.00268875 to 0.00268875
Heightened Def Con from 0.00268875 to 0.00268875
Heightened Def Con from 0.00268875 to 0.00268875
Heightened Def Con from 0.00270125 to 0.00270125
Heightened Def Con from 0.00270125 to 0.00270125
Heightened Def Con from 0.00270125 to 0.00270125
Heightened Def Con from 0.00271375 to 0.00271375
Heightened Def Con from 0.00271375 ++to 0.00271375
Heightened Def Con from 0.00271375 ++to 0.00271375
Heightened Def Con from 0.00271375 +to 0.00271375
Heightened Def Con from 0.00271375 to 0.00271375
Heightened Def Con from 0.00271375 to 0.00271375
Heightened Def Con from 0.00271375 to 0.00271375
Heightened Def Con from 0.00273875 ++++to 0.00273875
Heightened Def Con from 0.00273875 to 0.00273875
Heightened Def Con from 0.00276375 to 0.00276375
Heightened Def Con from 0.00276375 +to 0.00276375
Heightened Def Con from 0.00276375 +to 0.00276375
Heightened Def Con from 0.00276375 to 0.00276375
Heightened Def Con from 0.00276375 to 0.00276375
Heightened Def Con from 0.00276375 to 0.00276375
Heightened Def Con from 0.00278875 to 0.00278875
Heightened Def Con from 0.00278875 ++++to 0.00278875
Heightened Def Con from 0.00278875 to 0.00278875
Heightened Def Con from 0.00278875 to 0.00278875
Heightened Def Con from 0.00280125 to 0.00280125
Heightened Def Con from 0.00281375 +to 0.00281375
Heightened Def Con from 0.00281375 to 0.00281375
Heightened Def Con from 0.00281375 to 0.00281375
Heightened Def Con from 0.00281375 to 0.00281375
Heightened Def Con from 0.00281375 to 0.00281375
Heightened Def Con from 0.00281375 to 0.00281375
Heightened Def Con from 0.00281375 to 0.00281375
Heightened Def Con from 0.00282625 to 0.00282625
Heightened Def Con from 0.00282625 to 0.00282625
Heightened Def Con from 0.00282625 to 0.00282625
Heightened Def Con from 0.00283875 ++to 0.00283875
Heightened Def Con from 0.00283875 ++to 0.00283875
Heightened Def Con from 0.00283875 to 0.00283875
Heightened Def Con from 0.00283875 to 0.00283875
Heightened Def Con from 0.00283875 to 0.00283875
Heightened Def Con from 0.00285125 +to 0.00285125
Heightened Def Con from 0.00285125 to 0.00285125
Heightened Def Con from 0.00286375 +to 0.00286375
Heightened Def Con from 0.00286375 +to 0.00286375
Heightened Def Con from 0.00286375 ++to 0.00286375
Heightened Def Con from 0.00286375 to 0.00286375
Heightened Def Con from 0.00286375 to 0.00286375
Heightened Def Con from 0.00287625 to 0.00287625
Heightened Def Con from 0.00288875 ++to 0.00288875
Heightened Def Con from 0.00288875 +++to 0.00288875
Heightened Def Con from 0.00288875 +++to 0.00288875
Heightened Def Con from 0.00288875 to 0.00288875
Heightened Def Con from 0.00290125 to 0.00290125
Heightened Def Con from 0.00291375 to 0.00291375
Heightened Def Con from 0.00291375 to 0.00291375
Heightened Def Con from 0.00291375 to 0.00291375
Heightened Def Con from 0.00291375 to 0.00291375
Heightened Def Con from 0.00292625 to 0.00292625
Heightened Def Con from 0.00292625 to 0.00292625
Heightened Def Con from 0.00293875 to 0.00293875
Heightened Def Con from 0.00293875 +to 0.00293875
Heightened Def Con from 0.00293875 +to 0.00293875
Heightened Def Con from 0.00293875 ++to 0.00293875
Heightened Def Con from 0.00293875 to 0.00293875
Heightened Def Con from 0.00295125 to 0.00295125
Heightened Def Con from 0.00296375 ++++to 0.00296375
Heightened Def Con from 0.00296375 to 0.00296375
Heightened Def Con from 0.00297625 to 0.00297625
Heightened Def Con from 0.00298875 +to 0.00298875
Heightened Def Con from 0.00298875 ++to 0.00298875
Heightened Def Con from 0.00298875 +++to 0.00298875
Heightened Def Con from 0.00298875 +++to 0.00298875
Heightened Def Con from 0.00298875 +++to 0.00298875
Heightened Def Con from 0.00298875 to 0.00298875
Heightened Def Con from 0.00301375 to 0.00301375
Heightened Def Con from 0.00301375 +to 0.00301375
Heightened Def Con from 0.00301375 to 0.00301375
Heightened Def Con from 0.00301375 to 0.00301375
Heightened Def Con from 0.00301375 to 0.00301375
Heightened Def Con from 0.00302625 to 0.00302625
Heightened Def Con from 0.00303875 +to 0.00303875
Heightened Def Con from 0.00303875 +to 0.00303875
Heightened Def Con from 0.00303875 to 0.00303875
Heightened Def Con from 0.00303875 to 0.00303875
Heightened Def Con from 0.00303875 to 0.00303875
Heightened Def Con from 0.00303875 to 0.00303875
Heightened Def Con from 0.00305125 to 0.00305125
Heightened Def Con from 0.00306375 ++to 0.00306375
Heightened Def Con from 0.00306375 ++to 0.00306375
Heightened Def Con from 0.00306375 ++to 0.00306375
Heightened Def Con from 0.00306375 to 0.00306375
Heightened Def Con from 0.00307625 to 0.00307625
Heightened Def Con from 0.00308875 to 0.00308875
Heightened Def Con from 0.00308875 to 0.00308875
Heightened Def Con from 0.00308875 to 0.00308875
Heightened Def Con from 0.00308875 to 0.00308875
Heightened Def Con from 0.00310125 to 0.00310125
Heightened Def Con from 0.00311375 ++to 0.00311375
Heightened Def Con from 0.00311375 +to 0.00311375
Heightened Def Con from 0.00311375 to 0.00311375
Heightened Def Con from 0.00311375 to 0.00311375
Heightened Def Con from 0.00311375 to 0.00311375
Heightened Def Con from 0.00312625 to 0.00312625
Heightened Def Con from 0.00312625 to 0.00312625
Heightened Def Con from 0.00313875 to 0.00313875
Heightened Def Con from 0.00313875 to 0.00313875
Heightened Def Con from 0.00313875 ++to 0.00313875
Heightened Def Con from 0.00313875 ++to 0.00313875
Heightened Def Con from 0.00313875 to 0.00313875
Heightened Def Con from 0.00315125 +to 0.00315125
Heightened Def Con from 0.00315125 to 0.00315125
Heightened Def Con from 0.00316375 to 0.00316375
Heightened Def Con from 0.00316375 to 0.00316375
Heightened Def Con from 0.00317625 to 0.00317625
Heightened Def Con from 0.00318875 to 0.00318875
Heightened Def Con from 0.00318875 to 0.00318875
Heightened Def Con from 0.00321375 to 0.00321375
Heightened Def Con from 0.00321375 to 0.00321375
Heightened Def Con from 0.00321375 to 0.00321375
Heightened Def Con from 0.00322625 to 0.00322625
Heightened Def Con from 0.00323875 +to 0.00323875
Heightened Def Con from 0.00323875 to 0.00323875
Heightened Def Con from 0.00323875 to 0.00323875
Heightened Def Con from 0.00325125 to 0.00325125
Heightened Def Con from 0.00326375 to 0.00326375
Heightened Def Con from 0.00326375 to 0.00326375
Heightened Def Con from 0.00328875 to 0.00328875
Heightened Def Con from 0.00328875 to 0.00328875
Heightened Def Con from 0.00328875 to 0.00328875
Heightened Def Con from 0.00328875 to 0.00328875
Heightened Def Con from 0.00331375 to 0.00331375
Heightened Def Con from 0.00331375 ++to 0.00331375
Heightened Def Con from 0.00331375 ++to 0.00331375
Heightened Def Con from 0.00331375 to 0.00331375
Heightened Def Con from 0.00333875 +to 0.00333875
Heightened Def Con from 0.00333875 to 0.00333875
Heightened Def Con from 0.00333875 to 0.00333875
Heightened Def Con from 0.00333875 to 0.00333875
Heightened Def Con from 0.00333875 to 0.00333875
Heightened Def Con from 0.00333875 to 0.00333875
Heightened Def Con from 0.00336375 ++++to 0.00336375
Heightened Def Con from 0.00336375 to 0.00336375
Heightened Def Con from 0.00337625 to 0.00337625
Heightened Def Con from 0.00337625 to 0.00337625
Heightened Def Con from 0.00338875 to 0.00338875
Heightened Def Con from 0.00338875 to 0.00338875
Heightened Def Con from 0.00338875 to 0.00338875
Heightened Def Con from 0.00338875 to 0.00338875
Heightened Def Con from 0.00340125 to 0.00340125
Heightened Def Con from 0.00341375 to 0.00341375
Heightened Def Con from 0.00341375 to 0.00341375
Heightened Def Con from 0.00342625 to 0.00342625
Heightened Def Con from 0.00343875 ++to 0.00343875
Heightened Def Con from 0.00343875 ++to 0.00343875
Heightened Def Con from 0.00343875 to 0.00343875
Heightened Def Con from 0.00343875 to 0.00343875
Heightened Def Con from 0.00345125 to 0.00345125
Heightened Def Con from 0.00346375 to 0.00346375
Heightened Def Con from 0.00346375 to 0.00346375
Heightened Def Con from 0.00346375 to 0.00346375
Heightened Def Con from 0.00347625 to 0.00347625
Heightened Def Con from 0.00348875 ++++to 0.00348875
Heightened Def Con from 0.00348875 to 0.00348875
Heightened Def Con from 0.00350125 to 0.00350125
Heightened Def Con from 0.00350125 to 0.00350125
Heightened Def Con from 0.00351375 to 0.00351375
Heightened Def Con from 0.00351375 +to 0.00351375
Heightened Def Con from 0.00351375 ++to 0.00351375
Heightened Def Con from 0.00351375 to 0.00351375
Heightened Def Con from 0.00351375 to 0.00351375
Heightened Def Con from 0.00352625 to 0.00352625
Heightened Def Con from 0.00352625 to 0.00352625
Heightened Def Con from 0.00353875 +++to 0.00353875
Heightened Def Con from 0.00353875 ++to 0.00353875
Heightened Def Con from 0.00353875 to 0.00353875
Heightened Def Con from 0.00355125 to 0.00355125
Heightened Def Con from 0.00356375 to 0.00356375
Heightened Def Con from 0.00356375 to 0.00356375
Heightened Def Con from 0.00356375 to 0.00356375
Heightened Def Con from 0.00356375 to 0.00356375
Heightened Def Con from 0.00356375 to 0.00356375
Heightened Def Con from 0.00358875 to 0.00358875
Heightened Def Con from 0.00358875 to 0.00358875
Heightened Def Con from 0.00358875 to 0.00358875
Heightened Def Con from 0.00358875 to 0.00358875
Heightened Def Con from 0.00361375 to 0.00361375
Heightened Def Con from 0.00361375 ++to 0.00361375
Heightened Def Con from 0.00361375 to 0.00361375
Heightened Def Con from 0.00362625 to 0.00362625
Heightened Def Con from 0.00363875 to 0.00363875
Heightened Def Con from 0.00363875 to 0.00363875
Heightened Def Con from 0.00365125 to 0.00365125
Heightened Def Con from 0.00365125 to 0.00365125
Heightened Def Con from 0.00365125 to 0.00365125
Heightened Def Con from 0.00366375 ++to 0.00366375
Heightened Def Con from 0.00366375 ++to 0.00366375
Heightened Def Con from 0.00366375 to 0.00366375
Heightened Def Con from 0.00367625 to 0.00367625
Heightened Def Con from 0.00368875 ++to 0.00368875
Heightened Def Con from 0.00368875 ++to 0.00368875
Heightened Def Con from 0.00368875 to 0.00368875
Heightened Def Con from 0.00370125 to 0.00370125
Heightened Def Con from 0.00370125 to 0.00370125
Heightened Def Con from 0.00371375 to 0.00371375
Heightened Def Con from 0.00371375 to 0.00371375
Heightened Def Con from 0.00371375 to 0.00371375
Heightened Def Con from 0.00372625 to 0.00372625
Heightened Def Con from 0.00373875 to 0.00373875
Heightened Def Con from 0.00373875 to 0.00373875
Heightened Def Con from 0.00375125 to 0.00375125
Heightened Def Con from 0.00376375 to 0.00376375
Heightened Def Con from 0.00376375 to 0.00376375
Heightened Def Con from 0.00376375 to 0.00376375
Heightened Def Con from 0.00378875 to 0.00378875
Heightened Def Con from 0.00378875 to 0.00378875
Heightened Def Con from 0.00378875 to 0.00378875
Heightened Def Con from 0.00380125 to 0.00380125
Heightened Def Con from 0.00381375 +to 0.00381375
Heightened Def Con from 0.00381375 +to 0.00381375
Heightened Def Con from 0.00381375 to 0.00381375
Heightened Def Con from 0.00381375 to 0.00381375
Heightened Def Con from 0.00381375 to 0.00381375
Heightened Def Con from 0.00383875 +to 0.00383875
Heightened Def Con from 0.00383875 to 0.00383875
Heightened Def Con from 0.00383875 to 0.00383875
Heightened Def Con from 0.00385125 to 0.00385125
Heightened Def Con from 0.00386375 to 0.00386375
Heightened Def Con from 0.00386375 +to 0.00386375
Heightened Def Con from 0.00387625 to 0.00387625
Heightened Def Con from 0.00388875 ++to 0.00388875
Heightened Def Con from 0.00388875 ++to 0.00388875
Heightened Def Con from 0.00388875 to 0.00388875
Heightened Def Con from 0.00388875 to 0.00388875
Heightened Def Con from 0.00391375 to 0.00391375
Heightened Def Con from 0.00392625 to 0.00392625
Heightened Def Con from 0.00393875 to 0.00393875
Heightened Def Con from 0.00395125 to 0.00395125
Heightened Def Con from 0.00396375 +to 0.00396375
Heightened Def Con from 0.00396375 ++++to 0.00396375
Heightened Def Con from 0.00397625 to 0.00397625
Heightened Def Con from 0.00398875 to 0.00398875
Heightened Def Con from 0.00398875 to 0.00398875
Heightened Def Con from 0.00398875 to 0.00398875
Heightened Def Con from 0.00398875 to 0.00398875
Heightened Def Con from 0.00400125 to 0.00400125
Heightened Def Con from 0.00401375 to 0.00401375
Heightened Def Con from 0.00401375 to 0.00401375
Heightened Def Con from 0.00402625 to 0.00402625
Heightened Def Con from 0.00402625 to 0.00402625
Heightened Def Con from 0.00403875 to 0.00403875
Heightened Def Con from 0.00403875 to 0.00403875
Heightened Def Con from 0.00405125 to 0.00405125
Heightened Def Con from 0.00405125 to 0.00405125
Heightened Def Con from 0.00405125 to 0.00405125
Heightened Def Con from 0.00406375 +to 0.00406375
Heightened Def Con from 0.00406375 +to 0.00406375
Heightened Def Con from 0.00407625 to 0.00407625
Heightened Def Con from 0.00408875 ++to 0.00408875
Heightened Def Con from 0.00408875 to 0.00408875
Heightened Def Con from 0.00408875 ++to 0.00408875
Heightened Def Con from 0.00408875 ++to 0.00408875
Heightened Def Con from 0.00408875 to 0.00408875
Heightened Def Con from 0.00408875 to 0.00408875
Heightened Def Con from 0.00410125 to 0.00410125
Heightened Def Con from 0.00410125 to 0.00410125
Heightened Def Con from 0.00411375 to 0.00411375
Heightened Def Con from 0.00411375 to 0.00411375
Heightened Def Con from 0.00411375 +to 0.00411375
Heightened Def Con from 0.00411375 to 0.00411375
Heightened Def Con from 0.00412625 to 0.00412625
Heightened Def Con from 0.00413875 to 0.00413875
Heightened Def Con from 0.00413875 to 0.00413875
Heightened Def Con from 0.00416375 +to 0.00416375
Heightened Def Con from 0.00416375 to 0.00416375
Heightened Def Con from 0.00416375 ++to 0.00416375
Heightened Def Con from 0.00416375 ++to 0.00416375
Heightened Def Con from 0.00416375 to 0.00416375
Heightened Def Con from 0.00416375 to 0.00416375
Heightened Def Con from 0.00417625 to 0.00417625
Heightened Def Con from 0.00418875 +to 0.00418875
Heightened Def Con from 0.00418875 to 0.00418875
Heightened Def Con from 0.00418875 ++to 0.00418875
Heightened Def Con from 0.00418875 ++to 0.00418875
Heightened Def Con from 0.00421375 ++++to 0.00421375
Heightened Def Con from 0.00421375 to 0.00421375
Heightened Def Con from 0.00421375 to 0.00421375
Heightened Def Con from 0.00422625 to 0.00422625
Heightened Def Con from 0.00423875 +to 0.00423875
Heightened Def Con from 0.00425125 to 0.00425125
Heightened Def Con from 0.00426375 ++++to 0.00426375
Heightened Def Con from 0.00426375 to 0.00426375
Heightened Def Con from 0.00427625 to 0.00427625
Heightened Def Con from 0.00428875 ++to 0.00428875
Heightened Def Con from 0.00428875 ++to 0.00428875
Heightened Def Con from 0.00428875 to 0.00428875
Heightened Def Con from 0.00430125 to 0.00430125
Heightened Def Con from 0.00431375 +to 0.00431375
Heightened Def Con from 0.00431375 to 0.00431375
Heightened Def Con from 0.00431375 to 0.00431375
Heightened Def Con from 0.00433875 +to 0.00433875
Heightened Def Con from 0.00433875 to 0.00433875
Heightened Def Con from 0.00433875 to 0.00433875
Heightened Def Con from 0.00435125 to 0.00435125
Heightened Def Con from 0.00436375 +to 0.00436375
Heightened Def Con from 0.00436375 +to 0.00436375
Heightened Def Con from 0.00436375 +to 0.00436375
Heightened Def Con from 0.00436375 to 0.00436375
Heightened Def Con from 0.00438875 +to 0.00438875
Heightened Def Con from 0.00438875 to 0.00438875
Heightened Def Con from 0.00438875 to 0.00438875
Heightened Def Con from 0.00440125 to 0.00440125
Heightened Def Con from 0.00441375 to 0.00441375
Heightened Def Con from 0.00441375 ++to 0.00441375
Heightened Def Con from 0.00441375 to 0.00441375
Heightened Def Con from 0.00443875 to 0.00443875
Heightened Def Con from 0.00443875 to 0.00443875
Heightened Def Con from 0.00443875 ++to 0.00443875
Heightened Def Con from 0.00443875 ++to 0.00443875
Heightened Def Con from 0.00443875 to 0.00443875
Heightened Def Con from 0.00446375 ++to 0.00446375
Heightened Def Con from 0.00446375 ++to 0.00446375
Heightened Def Con from 0.00446375 to 0.00446375
Heightened Def Con from 0.00446375 to 0.00446375
Heightened Def Con from 0.00447625 to 0.00447625
Heightened Def Con from 0.00448875 to 0.00448875
Heightened Def Con from 0.00448875 to 0.00448875
Heightened Def Con from 0.00450125 to 0.00450125
Heightened Def Con from 0.00451375 to 0.00451375
Heightened Def Con from 0.00451375 +to 0.00451375
Heightened Def Con from 0.00451375 to 0.00451375
Heightened Def Con from 0.00453875 to 0.00453875
Heightened Def Con from 0.00453875 to 0.00453875
Heightened Def Con from 0.00453875 to 0.00453875
Heightened Def Con from 0.00455125 to 0.00455125
Heightened Def Con from 0.00455125 to 0.00455125
Heightened Def Con from 0.00455125 to 0.00455125
Heightened Def Con from 0.00456375 to 0.00456375
Heightened Def Con from 0.00456375 ++to 0.00456375
Heightened Def Con from 0.00456375 ++to 0.00456375
Heightened Def Con from 0.00456375 to 0.00456375
Heightened Def Con from 0.00456375 to 0.00456375
Heightened Def Con from 0.00458875 to 0.00458875
Heightened Def Con from 0.00458875 to 0.00458875
Heightened Def Con from 0.00458875 to 0.00458875
Heightened Def Con from 0.00458875 to 0.00458875
Heightened Def Con from 0.00461375 to 0.00461375
Heightened Def Con from 0.00461375 to 0.00461375
Heightened Def Con from 0.00462625 to 0.00462625
Heightened Def Con from 0.00463875 +to 0.00463875
Heightened Def Con from 0.00463875 to 0.00463875
Heightened Def Con from 0.00466375 to 0.00466375
Heightened Def Con from 0.00467625 to 0.00467625
Heightened Def Con from 0.00467625 to 0.00467625
Heightened Def Con from 0.00468875 +++to 0.00468875
Heightened Def Con from 0.00468875 +to 0.00468875
Heightened Def Con from 0.00468875 ++to 0.00468875
Heightened Def Con from 0.00468875 ++to 0.00468875
Heightened Def Con from 0.00468875 to 0.00468875
Heightened Def Con from 0.00471375 ++to 0.00471375
Heightened Def Con from 0.00471375 ++to 0.00471375
Heightened Def Con from 0.00471375 to 0.00471375
Heightened Def Con from 0.00471375 to 0.00471375
Heightened Def Con from 0.00473875 to 0.00473875
Heightened Def Con from 0.00473875 ++to 0.00473875
Heightened Def Con from 0.00473875 +++to 0.00473875
Heightened Def Con from 0.00473875 +++to 0.00473875
Heightened Def Con from 0.00473875 ++to 0.00473875
Heightened Def Con from 0.00473875 to 0.00473875
Heightened Def Con from 0.00473875 to 0.00473875
Heightened Def Con from 0.00476375 to 0.00476375
Heightened Def Con from 0.00476375 to 0.00476375
Heightened Def Con from 0.00476375 ++to 0.00476375
Heightened Def Con from 0.00476375 to 0.00476375
Heightened Def Con from 0.00478875 to 0.00478875
Heightened Def Con from 0.00478875 to 0.00478875
Heightened Def Con from 0.00481375 to 0.00481375
Heightened Def Con from 0.00481375 +to 0.00481375
Heightened Def Con from 0.00481375 +++to 0.00481375
Heightened Def Con from 0.00481375 ++to 0.00481375
Heightened Def Con from 0.00481375 to 0.00481375
Heightened Def Con from 0.00481375 to 0.00481375
Heightened Def Con from 0.00482625 to 0.00482625
Heightened Def Con from 0.00483875 ++to 0.00483875
Heightened Def Con from 0.00483875 ++to 0.00483875
Heightened Def Con from 0.00483875 to 0.00483875
Heightened Def Con from 0.00486375 ++to 0.00486375
Heightened Def Con from 0.00486375 ++to 0.00486375
Heightened Def Con from 0.00486375 to 0.00486375
Heightened Def Con from 0.00486375 to 0.00486375
Heightened Def Con from 0.00488875 ++to 0.00488875
Heightened Def Con from 0.00488875 ++to 0.00488875
Heightened Def Con from 0.00488875 to 0.00488875
Heightened Def Con from 0.00490125 to 0.00490125
Heightened Def Con from 0.00491375 to 0.00491375
Heightened Def Con from 0.00491375 +to 0.00491375
Heightened Def Con from 0.00491375 +to 0.00491375
Heightened Def Con from 0.00491375 +to 0.00491375
Heightened Def Con from 0.00493875 to 0.00493875
Heightened Def Con from 0.00493875 to 0.00493875
Heightened Def Con from 0.00493875 ++to 0.00493875
Heightened Def Con from 0.00493875 to 0.00493875
Heightened Def Con from 0.00495125 to 0.00495125
Heightened Def Con from 0.00496375 +to 0.00496375
Heightened Def Con from 0.00496375 to 0.00496375
Heightened Def Con from 0.00496375 to 0.00496375
Heightened Def Con from 0.00498875 +to 0.00498875
Heightened Def Con from 0.00498875 +to 0.00498875
Heightened Def Con from 0.00498875 to 0.00498875
Heightened Def Con from 0.00498875 to 0.00498875
Heightened Def Con from 0.00498875 to 0.00498875
Heightened Def Con from 0.00501375 +to 0.00501375
Heightened Def Con from 0.00501375 to 0.00501375
Heightened Def Con from 0.00502625 to 0.00502625
Heightened Def Con from 0.00503875 +to 0.00503875
Heightened Def Con from 0.00503875 +to 0.00503875
Heightened Def Con from 0.00503875 to 0.00503875
Heightened Def Con from 0.00506375 to 0.00506375
Heightened Def Con from 0.00506375 to 0.00506375
Heightened Def Con from 0.00506375 to 0.00506375
Heightened Def Con from 0.00506375 to 0.00506375
Heightened Def Con from 0.00506375 to 0.00506375
Heightened Def Con from 0.00507625 to 0.00507625
Heightened Def Con from 0.00508875 to 0.00508875
Heightened Def Con from 0.00508875 to 0.00508875
Heightened Def Con from 0.00511375 to 0.00511375
Heightened Def Con from 0.00511375 to 0.00511375
Heightened Def Con from 0.00511375 to 0.00511375
Heightened Def Con from 0.00511375 to 0.00511375
Heightened Def Con from 0.00513875 to 0.00513875
Heightened Def Con from 0.00513875 to 0.00513875
Heightened Def Con from 0.00513875 to 0.00513875
Heightened Def Con from 0.00516375 to 0.00516375
Heightened Def Con from 0.00516375 +++to 0.00516375
Heightened Def Con from 0.00516375 ++to 0.00516375
Heightened Def Con from 0.00516375 to 0.00516375
Heightened Def Con from 0.00518875 ++to 0.00518875
Heightened Def Con from 0.00518875 ++to 0.00518875
Heightened Def Con from 0.00518875 to 0.00518875
Heightened Def Con from 0.00518875 to 0.00518875
Heightened Def Con from 0.00520125 to 0.00520125
Heightened Def Con from 0.00521375 to 0.00521375
Heightened Def Con from 0.00521375 to 0.00521375
Heightened Def Con from 0.00521375 to 0.00521375
Heightened Def Con from 0.00523875 to 0.00523875
Heightened Def Con from 0.00523875 +++++to 0.00523875
Heightened Def Con from 0.00523875 +++++to 0.00523875
Heightened Def Con from 0.00523875 to 0.00523875
Heightened Def Con from 0.00523875 to 0.00523875
Heightened Def Con from 0.00523875 to 0.00523875
Heightened Def Con from 0.00526375 ++to 0.00526375
Heightened Def Con from 0.00526375 ++to 0.00526375
Heightened Def Con from 0.00526375 ++to 0.00526375
Heightened Def Con from 0.00526375 to 0.00526375
Heightened Def Con from 0.00526375 to 0.00526375
Heightened Def Con from 0.00527625 to 0.00527625
Heightened Def Con from 0.00528875 to 0.00528875
Heightened Def Con from 0.00528875 ++to 0.00528875
Heightened Def Con from 0.00528875 to 0.00528875
Heightened Def Con from 0.00530125 to 0.00530125
Heightened Def Con from 0.00531375 +to 0.00531375
Heightened Def Con from 0.00531375 to 0.00531375
Heightened Def Con from 0.00531375 to 0.00531375
Heightened Def Con from 0.00532625 to 0.00532625
Heightened Def Con from 0.00533875 to 0.00533875
Heightened Def Con from 0.00533875 ++++to 0.00533875
Heightened Def Con from 0.00533875 to 0.00533875
Heightened Def Con from 0.00536375 +to 0.00536375
Heightened Def Con from 0.00536375 to 0.00536375
Heightened Def Con from 0.00537625 to 0.00537625
Heightened Def Con from 0.00538875 +++to 0.00538875
Heightened Def Con from 0.00538875 ++to 0.00538875
Heightened Def Con from 0.00538875 ++to 0.00538875
Heightened Def Con from 0.00538875 to 0.00538875
Heightened Def Con from 0.00541375 to 0.00541375
Heightened Def Con from 0.00541375 ++to 0.00541375
Heightened Def Con from 0.00541375 +++++to 0.00541375
Heightened Def Con from 0.00541375 +++++to 0.00541375
Heightened Def Con from 0.00541375 to 0.00541375
Heightened Def Con from 0.00542625 to 0.00542625
Heightened Def Con from 0.00542625 to 0.00542625
Heightened Def Con from 0.00543875 +++to 0.00543875
Heightened Def Con from 0.00543875 +++to 0.00543875
Heightened Def Con from 0.00543875 to 0.00543875
Heightened Def Con from 0.00543875 to 0.00543875
Heightened Def Con from 0.00546375 to 0.00546375
Heightened Def Con from 0.00546375 to 0.00546375
Heightened Def Con from 0.00546375 to 0.00546375
Heightened Def Con from 0.00548875 ++++to 0.00548875
Heightened Def Con from 0.00548875 to 0.00548875
Heightened Def Con from 0.00551375 to 0.00551375
Heightened Def Con from 0.00551375 ++to 0.00551375
Heightened Def Con from 0.00551375 ++to 0.00551375
Heightened Def Con from 0.00551375 to 0.00551375
Heightened Def Con from 0.00551375 to 0.00551375
Heightened Def Con from 0.00553875 to 0.00553875
Heightened Def Con from 0.00553875 ++++to 0.00553875
Heightened Def Con from 0.00553875 to 0.00553875
Heightened Def Con from 0.00553875 to 0.00553875
Heightened Def Con from 0.00556375 to 0.00556375
Heightened Def Con from 0.00556375 to 0.00556375
Heightened Def Con from 0.00556375 to 0.00556375
Heightened Def Con from 0.00558875 to 0.00558875
Heightened Def Con from 0.00558875 ++++to 0.00558875
Heightened Def Con from 0.00558875 to 0.00558875
Heightened Def Con from 0.00558875 to 0.00558875
Heightened Def Con from 0.00561375 to 0.00561375
Heightened Def Con from 0.00561375 ++to 0.00561375
Heightened Def Con from 0.00561375 to 0.00561375
Heightened Def Con from 0.00561375 to 0.00561375
Heightened Def Con from 0.00563875 to 0.00563875
Heightened Def Con from 0.00563875 ++to 0.00563875
Heightened Def Con from 0.00563875 ++to 0.00563875
Heightened Def Con from 0.00563875 to 0.00563875
Heightened Def Con from 0.00566375 to 0.00566375
Heightened Def Con from 0.00566375 to 0.00566375
Heightened Def Con from 0.00566375 to 0.00566375
Heightened Def Con from 0.00568875 +++to 0.00568875
Heightened Def Con from 0.00568875 +++to 0.00568875
Heightened Def Con from 0.00568875 to 0.00568875
Heightened Def Con from 0.00571375 to 0.00571375
Heightened Def Con from 0.00571375 ++++to 0.00571375
Heightened Def Con from 0.00571375 +++to 0.00571375
Heightened Def Con from 0.00571375 +++to 0.00571375
Heightened Def Con from 0.00571375 to 0.00571375
Heightened Def Con from 0.00572625 to 0.00572625
Heightened Def Con from 0.00573875 ++to 0.00573875
Heightened Def Con from 0.00573875 +to 0.00573875
Heightened Def Con from 0.00573875 to 0.00573875
Heightened Def Con from 0.00576375 ++to 0.00576375
Heightened Def Con from 0.00576375 ++to 0.00576375
Heightened Def Con from 0.00576375 to 0.00576375
Heightened Def Con from 0.00576375 to 0.00576375
Heightened Def Con from 0.00578875 to 0.00578875
Heightened Def Con from 0.00578875 ++to 0.00578875
Heightened Def Con from 0.00578875 ++to 0.00578875
Heightened Def Con from 0.00578875 to 0.00578875
Heightened Def Con from 0.00578875 to 0.00578875
Heightened Def Con from 0.00578875 to 0.00578875
Heightened Def Con from 0.00581375 to 0.00581375
Heightened Def Con from 0.00581375 to 0.00581375
Heightened Def Con from 0.00581375 ++++to 0.00581375
Heightened Def Con from 0.00581375 ++to 0.00581375
Heightened Def Con from 0.00581375 ++to 0.00581375
Heightened Def Con from 0.00581375 to 0.00581375
Heightened Def Con from 0.00581375 to 0.00581375
Heightened Def Con from 0.00582625 to 0.00582625
Heightened Def Con from 0.00583875 to 0.00583875
Heightened Def Con from 0.00585125 to 0.00585125
Heightened Def Con from 0.00586375 to 0.00586375
Heightened Def Con from 0.00586375 to 0.00586375
Heightened Def Con from 0.00587625 to 0.00587625
Heightened Def Con from 0.00588875 ++to 0.00588875
Heightened Def Con from 0.00588875 ++++to 0.00588875
Heightened Def Con from 0.00588875 +++to 0.00588875
Heightened Def Con from 0.00588875 to 0.00588875
Heightened Def Con from 0.00588875 to 0.00588875
Heightened Def Con from 0.00590125 to 0.00590125
Heightened Def Con from 0.00591375 ++to 0.00591375
Heightened Def Con from 0.00591375 ++to 0.00591375
Heightened Def Con from 0.00591375 to 0.00591375
Heightened Def Con from 0.00591375 to 0.00591375
Heightened Def Con from 0.00593875 ++to 0.00593875
Heightened Def Con from 0.00593875 ++to 0.00593875
Heightened Def Con from 0.00593875 to 0.00593875
Heightened Def Con from 0.00593875 +to 0.00593875
Heightened Def Con from 0.00593875 to 0.00593875
Heightened Def Con from 0.00593875 to 0.00593875
Heightened Def Con from 0.00596375 +to 0.00596375
Heightened Def Con from 0.00596375 ++to 0.00596375
Heightened Def Con from 0.00596375 to 0.00596375
Heightened Def Con from 0.00598875 to 0.00598875
Heightened Def Con from 0.00598875 to 0.00598875
Heightened Def Con from 0.00598875 to 0.00598875
Heightened Def Con from 0.00601375 ++to 0.00601375
Heightened Def Con from 0.00601375 ++to 0.00601375
Heightened Def Con from 0.00601375 ++to 0.00601375
Heightened Def Con from 0.00603875 to 0.00603875
Heightened Def Con from 0.00603875 +++to 0.00603875
Heightened Def Con from 0.00603875 ++to 0.00603875
Heightened Def Con from 0.00603875 ++to 0.00603875
Heightened Def Con from 0.00603875 to 0.00603875
Heightened Def Con from 0.00603875 to 0.00603875
Heightened Def Con from 0.00605125 to 0.00605125
Heightened Def Con from 0.00606375 to 0.00606375
Heightened Def Con from 0.00606375 to 0.00606375
Heightened Def Con from 0.00606375 to 0.00606375
Heightened Def Con from 0.00608875 ++++to 0.00608875
Heightened Def Con from 0.00608875 to 0.00608875
Heightened Def Con from 0.00610125 to 0.00610125
Heightened Def Con from 0.00611375 ++to 0.00611375
Heightened Def Con from 0.00611375 +++to 0.00611375
Heightened Def Con from 0.00611375 +++to 0.00611375
Heightened Def Con from 0.00611375 +++to 0.00611375
Heightened Def Con from 0.00611375 to 0.00611375
Heightened Def Con from 0.00611375 to 0.00611375
Heightened Def Con from 0.00613875 ++to 0.00613875
Heightened Def Con from 0.00613875 ++to 0.00613875
Heightened Def Con from 0.00613875 to 0.00613875
Heightened Def Con from 0.00616375 +++to 0.00616375
Heightened Def Con from 0.00616375 ++to 0.00616375
Heightened Def Con from 0.00616375 to 0.00616375
Heightened Def Con from 0.00616375 to 0.00616375
Heightened Def Con from 0.00617625 to 0.00617625
Heightened Def Con from 0.00618875 ++to 0.00618875
Heightened Def Con from 0.00618875 ++to 0.00618875
Heightened Def Con from 0.00618875 ++to 0.00618875
Heightened Def Con from 0.00618875 to 0.00618875
Heightened Def Con from 0.00618875 to 0.00618875
Heightened Def Con from 0.00618875 to 0.00618875
Heightened Def Con from 0.00621375 to 0.00621375
Heightened Def Con from 0.00623875 +++to 0.00623875
Heightened Def Con from 0.00623875 ++to 0.00623875
Heightened Def Con from 0.00623875 to 0.00623875
Heightened Def Con from 0.00623875 to 0.00623875
Heightened Def Con from 0.00625125 to 0.00625125
Heightened Def Con from 0.00626375 to 0.00626375
Heightened Def Con from 0.00626375 ++to 0.00626375
Heightened Def Con from 0.00626375 ++to 0.00626375
Heightened Def Con from 0.00626375 ++++to 0.00626375
Heightened Def Con from 0.00626375 ++to 0.00626375
Heightened Def Con from 0.00626375 ++to 0.00626375
Heightened Def Con from 0.00626375 ++to 0.00626375
Heightened Def Con from 0.00626375 to 0.00626375
Heightened Def Con from 0.00628875 to 0.00628875
Heightened Def Con from 0.00628875 ++++to 0.00628875
Heightened Def Con from 0.00628875 to 0.00628875
Heightened Def Con from 0.00628875 to 0.00628875
Heightened Def Con from 0.00628875 to 0.00628875
Heightened Def Con from 0.00631375 +to 0.00631375
Heightened Def Con from 0.00631375 +to 0.00631375
Heightened Def Con from 0.00631375 to 0.00631375
Heightened Def Con from 0.00633875 ++++to 0.00633875
Heightened Def Con from 0.00633875 to 0.00633875
Heightened Def Con from 0.00636375 +to 0.00636375
Heightened Def Con from 0.00636375 to 0.00636375
Heightened Def Con from 0.00636375 to 0.00636375
Heightened Def Con from 0.00637625 to 0.00637625
Heightened Def Con from 0.00638875 ++to 0.00638875
Heightened Def Con from 0.00638875 ++to 0.00638875
Heightened Def Con from 0.00638875 +to 0.00638875
Heightened Def Con from 0.00641375 ++to 0.00641375
Heightened Def Con from 0.00641375 ++to 0.00641375
Heightened Def Con from 0.00641375 to 0.00641375
Heightened Def Con from 0.00643875 to 0.00643875
Heightened Def Con from 0.00643875 ++to 0.00643875
Heightened Def Con from 0.00643875 ++to 0.00643875
Heightened Def Con from 0.00643875 to 0.00643875
Heightened Def Con from 0.00646375 +to 0.00646375
Heightened Def Con from 0.00646375 to 0.00646375
Heightened Def Con from 0.00646375 ++to 0.00646375
Heightened Def Con from 0.00646375 ++to 0.00646375
Heightened Def Con from 0.00646375 ++to 0.00646375
Heightened Def Con from 0.00646375 to 0.00646375
Heightened Def Con from 0.00646375 to 0.00646375
Heightened Def Con from 0.00648875 +++to 0.00648875
Heightened Def Con from 0.00648875 ++to 0.00648875
Heightened Def Con from 0.00648875 ++to 0.00648875
Heightened Def Con from 0.00648875 to 0.00648875
Heightened Def Con from 0.00648875 to 0.00648875
Heightened Def Con from 0.00648875 to 0.00648875
Heightened Def Con from 0.00650125 to 0.00650125
Heightened Def Con from 0.00651375 +to 0.00651375
Heightened Def Con from 0.00651375 to 0.00651375
Heightened Def Con from 0.00653875 ++to 0.00653875
Heightened Def Con from 0.00653875 ++to 0.00653875
Heightened Def Con from 0.00653875 +to 0.00653875
Heightened Def Con from 0.00653875 to 0.00653875
Heightened Def Con from 0.00656375 to 0.00656375
Heightened Def Con from 0.00656375 to 0.00656375
Heightened Def Con from 0.00656375 to 0.00656375
Heightened Def Con from 0.00658875 to 0.00658875
Heightened Def Con from 0.00658875 ++++to 0.00658875
Heightened Def Con from 0.00658875 to 0.00658875
Heightened Def Con from 0.00661375 to 0.00661375
Heightened Def Con from 0.00661375 +to 0.00661375
Heightened Def Con from 0.00661375 to 0.00661375
Heightened Def Con from 0.00661375 to 0.00661375
Heightened Def Con from 0.00661375 to 0.00661375
Heightened Def Con from 0.00663875 ++to 0.00663875
Heightened Def Con from 0.00663875 +++to 0.00663875
Heightened Def Con from 0.00663875 +++to 0.00663875
Heightened Def Con from 0.00663875 to 0.00663875
Heightened Def Con from 0.00666375 to 0.00666375
Heightened Def Con from 0.00666375 ++to 0.00666375
Heightened Def Con from 0.00666375 ++to 0.00666375
Heightened Def Con from 0.00666375 to 0.00666375
Heightened Def Con from 0.00666375 to 0.00666375
Heightened Def Con from 0.00668875 ++to 0.00668875
Heightened Def Con from 0.00668875 ++to 0.00668875
Heightened Def Con from 0.00668875 to 0.00668875
Heightened Def Con from 0.00668875 to 0.00668875
Heightened Def Con from 0.00671375 to 0.00671375
Heightened Def Con from 0.00671375 +to 0.00671375
Heightened Def Con from 0.00671375 to 0.00671375
Heightened Def Con from 0.00673875 to 0.00673875
Heightened Def Con from 0.00673875 to 0.00673875
Heightened Def Con from 0.00673875 to 0.00673875
Heightened Def Con from 0.00673875 to 0.00673875
Heightened Def Con from 0.00676375 to 0.00676375
Heightened Def Con from 0.00676375 to 0.00676375
Heightened Def Con from 0.00676375 to 0.00676375
Heightened Def Con from 0.00676375 to 0.00676375
Heightened Def Con from 0.00678875 to 0.00678875
Heightened Def Con from 0.00678875 to 0.00678875
Heightened Def Con from 0.00678875 to 0.00678875
Heightened Def Con from 0.00681375 to 0.00681375
Heightened Def Con from 0.00681375 to 0.00681375
Heightened Def Con from 0.00681375 to 0.00681375
Heightened Def Con from 0.00683875 +to 0.00683875
Heightened Def Con from 0.00683875 to 0.00683875
Heightened Def Con from 0.00683875 +++to 0.00683875
Heightened Def Con from 0.00683875 +++to 0.00683875
Heightened Def Con from 0.00683875 to 0.00683875
Heightened Def Con from 0.00686375 to 0.00686375
Heightened Def Con from 0.00686375 to 0.00686375
Heightened Def Con from 0.00688875 ++to 0.00688875
Heightened Def Con from 0.00688875 +++to 0.00688875
Heightened Def Con from 0.00688875 +++to 0.00688875
Heightened Def Con from 0.00688875 to 0.00688875
Heightened Def Con from 0.00688875 to 0.00688875
Heightened Def Con from 0.00691375 to 0.00691375
Heightened Def Con from 0.00691375 to 0.00691375
Heightened Def Con from 0.00691375 to 0.00691375
Heightened Def Con from 0.00691375 to 0.00691375
Heightened Def Con from 0.00693875 to 0.00693875
Heightened Def Con from 0.00693875 to 0.00693875
Heightened Def Con from 0.00696375 ++++to 0.00696375
Heightened Def Con from 0.00696375 to 0.00696375
Heightened Def Con from 0.00696375 to 0.00696375
Heightened Def Con from 0.00698875 +to 0.00698875
Heightened Def Con from 0.00698875 +to 0.00698875
Heightened Def Con from 0.00698875 to 0.00698875
Heightened Def Con from 0.00698875 to 0.00698875
Heightened Def Con from 0.00701375 ++to 0.00701375
Heightened Def Con from 0.00701375 ++to 0.00701375
Heightened Def Con from 0.00701375 ++to 0.00701375
Heightened Def Con from 0.00701375 to 0.00701375
Heightened Def Con from 0.00703875 ++to 0.00703875
Heightened Def Con from 0.00703875 to 0.00703875
Heightened Def Con from 0.00703875 to 0.00703875
Heightened Def Con from 0.00703875 to 0.00703875
Heightened Def Con from 0.00703875 to 0.00703875
Heightened Def Con from 0.00706375 +to 0.00706375
Heightened Def Con from 0.00708875 to 0.00708875
Heightened Def Con from 0.00708875 ++to 0.00708875
Heightened Def Con from 0.00708875 to 0.00708875
Heightened Def Con from 0.00710125 to 0.00710125
Heightened Def Con from 0.00711375 to 0.00711375
Heightened Def Con from 0.00711375 to 0.00711375
Heightened Def Con from 0.00711375 to 0.00711375
Heightened Def Con from 0.00711375 to 0.00711375
Heightened Def Con from 0.00711375 to 0.00711375
Heightened Def Con from 0.00713875 to 0.00713875
Heightened Def Con from 0.00713875 +to 0.00713875
Heightened Def Con from 0.00713875 ++to 0.00713875
Heightened Def Con from 0.00713875 ++to 0.00713875
Heightened Def Con from 0.00713875 to 0.00713875
Heightened Def Con from 0.00713875 to 0.00713875
Heightened Def Con from 0.00713875 to 0.00713875
Heightened Def Con from 0.00716375 ++++to 0.00716375
Heightened Def Con from 0.00718875 to 0.00718875
Heightened Def Con from 0.00718875 to 0.00718875
Heightened Def Con from 0.00718875 to 0.00718875
Heightened Def Con from 0.00718875 to 0.00718875
Heightened Def Con from 0.00721375 to 0.00721375
Heightened Def Con from 0.00721375 +++to 0.00721375
Heightened Def Con from 0.00721375 +to 0.00721375
Heightened Def Con from 0.00721375 ++++to 0.00721375
Heightened Def Con from 0.00721375 to 0.00721375
Heightened Def Con from 0.00723875 ++to 0.00723875
Heightened Def Con from 0.00723875 +++to 0.00723875
Heightened Def Con from 0.00723875 +++to 0.00723875
Heightened Def Con from 0.00723875 to 0.00723875
Heightened Def Con from 0.00723875 to 0.00723875
Heightened Def Con from 0.00726375 ++to 0.00726375
Heightened Def Con from 0.00726375 ++to 0.00726375
Heightened Def Con from 0.00726375 to 0.00726375
Heightened Def Con from 0.00726375 to 0.00726375
Heightened Def Con from 0.00727625 to 0.00727625
Heightened Def Con from 0.00728875 to 0.00728875
Heightened Def Con from 0.00728875 to 0.00728875
Heightened Def Con from 0.00731375 to 0.00731375
Heightened Def Con from 0.00731375 to 0.00731375
Heightened Def Con from 0.00731375 to 0.00731375
Heightened Def Con from 0.00733875 ++to 0.00733875
Heightened Def Con from 0.00733875 ++to 0.00733875
Heightened Def Con from 0.00733875 to 0.00733875
Heightened Def Con from 0.00736375 +to 0.00736375
Heightened Def Con from 0.00736375 to 0.00736375
Heightened Def Con from 0.00736375 to 0.00736375
Heightened Def Con from 0.00736375 to 0.00736375
Heightened Def Con from 0.00738875 to 0.00738875
Heightened Def Con from 0.00738875 to 0.00738875
Heightened Def Con from 0.00741375 to 0.00741375
Heightened Def Con from 0.00741375 to 0.00741375
Heightened Def Con from 0.00741375 to 0.00741375
Heightened Def Con from 0.00743875 +to 0.00743875
Heightened Def Con from 0.00743875 to 0.00743875
Heightened Def Con from 0.00746375 to 0.00746375
Heightened Def Con from 0.00746375 to 0.00746375
Heightened Def Con from 0.00747625 to 0.00747625
Heightened Def Con from 0.00747625 to 0.00747625
Heightened Def Con from 0.00748875 +++++to 0.00748875
Heightened Def Con from 0.00748875 ++++to 0.00748875
Heightened Def Con from 0.00748875 +++to 0.00748875
Heightened Def Con from 0.00748875 to 0.00748875
Heightened Def Con from 0.00748875 to 0.00748875
Heightened Def Con from 0.00751375 to 0.00751375
Heightened Def Con from 0.00751375 to 0.00751375
Heightened Def Con from 0.00751375 to 0.00751375
Heightened Def Con from 0.00751375 to 0.00751375
Heightened Def Con from 0.00753875 ++++to 0.00753875
Heightened Def Con from 0.00753875 to 0.00753875
Heightened Def Con from 0.00753875 to 0.00753875
Heightened Def Con from 0.00756375 to 0.00756375
Heightened Def Con from 0.00756375 +++to 0.00756375
Heightened Def Con from 0.00756375 ++to 0.00756375
Heightened Def Con from 0.00756375 to 0.00756375
Heightened Def Con from 0.00756375 to 0.00756375
Heightened Def Con from 0.00758875 to 0.00758875
Heightened Def Con from 0.00758875 to 0.00758875
Heightened Def Con from 0.00758875 to 0.00758875
Heightened Def Con from 0.00761375 to 0.00761375
Heightened Def Con from 0.00761375 to 0.00761375
Heightened Def Con from 0.00761375 to 0.00761375
Heightened Def Con from 0.00763875 to 0.00763875
Heightened Def Con from 0.00763875 to 0.00763875
Heightened Def Con from 0.00766375 ++to 0.00766375
Heightened Def Con from 0.00766375 ++to 0.00766375
Heightened Def Con from 0.00766375 to 0.00766375
Heightened Def Con from 0.00766375 to 0.00766375
Heightened Def Con from 0.00767625 to 0.00767625
Heightened Def Con from 0.00768875 ++to 0.00768875
Heightened Def Con from 0.00768875 +++to 0.00768875
Heightened Def Con from 0.00768875 ++++to 0.00768875
Heightened Def Con from 0.00768875 +++to 0.00768875
Heightened Def Con from 0.00768875 ++to 0.00768875
Heightened Def Con from 0.00768875 to 0.00768875
Heightened Def Con from 0.00771375 to 0.00771375
Heightened Def Con from 0.00771375 to 0.00771375
Heightened Def Con from 0.00771375 ++to 0.00771375
Heightened Def Con from 0.00771375 to 0.00771375
Heightened Def Con from 0.00773875 to 0.00773875
Heightened Def Con from 0.00773875 to 0.00773875
Heightened Def Con from 0.00775125 to 0.00775125
Heightened Def Con from 0.00776375 ++to 0.00776375
Heightened Def Con from 0.00776375 ++to 0.00776375
Heightened Def Con from 0.00776375 to 0.00776375
Heightened Def Con from 0.00778875 to 0.00778875
Heightened Def Con from 0.00778875 +to 0.00778875
Heightened Def Con from 0.00778875 ++to 0.00778875
Heightened Def Con from 0.00778875 to 0.00778875
Heightened Def Con from 0.00778875 to 0.00778875
Heightened Def Con from 0.00781375 ++to 0.00781375
Heightened Def Con from 0.00781375 ++to 0.00781375
Heightened Def Con from 0.00781375 +to 0.00781375
Heightened Def Con from 0.00781375 to 0.00781375
Heightened Def Con from 0.00783875 +to 0.00783875
Heightened Def Con from 0.00783875 +to 0.00783875
Heightened Def Con from 0.00783875 ++to 0.00783875
Heightened Def Con from 0.00783875 to 0.00783875
Heightened Def Con from 0.00786375 to 0.00786375
Heightened Def Con from 0.00786375 to 0.00786375
Heightened Def Con from 0.00786375 to 0.00786375
Heightened Def Con from 0.00786375 to 0.00786375
Heightened Def Con from 0.00788875 to 0.00788875
Heightened Def Con from 0.00788875 to 0.00788875
Heightened Def Con from 0.00791375 +++to 0.00791375
Heightened Def Con from 0.00791375 ++to 0.00791375
Heightened Def Con from 0.00791375 to 0.00791375
Heightened Def Con from 0.00791375 to 0.00791375
Heightened Def Con from 0.00793875 ++to 0.00793875
Heightened Def Con from 0.00793875 ++to 0.00793875
Heightened Def Con from 0.00793875 to 0.00793875
Heightened Def Con from 0.00796375 to 0.00796375
Heightened Def Con from 0.00796375 ++++to 0.00796375
Heightened Def Con from 0.00796375 to 0.00796375
Heightened Def Con from 0.00796375 to 0.00796375
Heightened Def Con from 0.00798875 to 0.00798875
Heightened Def Con from 0.00798875 +++to 0.00798875
Heightened Def Con from 0.00798875 ++to 0.00798875
Heightened Def Con from 0.00798875 +to 0.00798875
Heightened Def Con from 0.00798875 to 0.00798875
Heightened Def Con from 0.00798875 to 0.00798875
Heightened Def Con from 0.00798875 to 0.00798875
Heightened Def Con from 0.00801375 ++++to 0.00801375
Heightened Def Con from 0.00801375 to 0.00801375
Heightened Def Con from 0.00801375 to 0.00801375
Heightened Def Con from 0.00801375 to 0.00801375
Heightened Def Con from 0.00803875 to 0.00803875
Heightened Def Con from 0.00803875 to 0.00803875
Heightened Def Con from 0.00803875 to 0.00803875
Heightened Def Con from 0.00806375 +to 0.00806375
Heightened Def Con from 0.00806375 ++to 0.00806375
Heightened Def Con from 0.00806375 +++++to 0.00806375
Heightened Def Con from 0.00806375 +++to 0.00806375
Heightened Def Con from 0.00806375 to 0.00806375
Heightened Def Con from 0.00808875 to 0.00808875
Heightened Def Con from 0.00808875 +++to 0.00808875
Heightened Def Con from 0.00808875 ++to 0.00808875
Heightened Def Con from 0.00808875 ++to 0.00808875
Heightened Def Con from 0.00811375 to 0.00811375
Heightened Def Con from 0.00811375 +++to 0.00811375
Heightened Def Con from 0.00811375 +++to 0.00811375
Heightened Def Con from 0.00811375 to 0.00811375
Heightened Def Con from 0.00813875 to 0.00813875
Heightened Def Con from 0.00813875 +to 0.00813875
Heightened Def Con from 0.00813875 ++to 0.00813875
Heightened Def Con from 0.00813875 to 0.00813875
Heightened Def Con from 0.00816375 to 0.00816375
Heightened Def Con from 0.00816375 to 0.00816375
Heightened Def Con from 0.00816375 to 0.00816375
Heightened Def Con from 0.00818875 to 0.00818875
Heightened Def Con from 0.00818875 to 0.00818875
Heightened Def Con from 0.00820125 to 0.00820125
Heightened Def Con from 0.00821375 ++++to 0.00821375
Heightened Def Con from 0.00821375 to 0.00821375
Heightened Def Con from 0.00821375 to 0.00821375
Heightened Def Con from 0.00821375 to 0.00821375
Heightened Def Con from 0.00823875 ++to 0.00823875
Heightened Def Con from 0.00823875 ++to 0.00823875
Heightened Def Con from 0.00823875 to 0.00823875
Heightened Def Con from 0.00826375 to 0.00826375
Heightened Def Con from 0.00826375 ++to 0.00826375
Heightened Def Con from 0.00826375 +++to 0.00826375
Heightened Def Con from 0.00826375 +++to 0.00826375
Heightened Def Con from 0.00826375 to 0.00826375
Heightened Def Con from 0.00826375 to 0.00826375
Heightened Def Con from 0.00828875 to 0.00828875
Heightened Def Con from 0.00828875 ++++to 0.00828875
Heightened Def Con from 0.00828875 to 0.00828875
Heightened Def Con from 0.00828875 to 0.00828875
Heightened Def Con from 0.00831375 +++to 0.00831375
Heightened Def Con from 0.00831375 +to 0.00831375
Heightened Def Con from 0.00831375 to 0.00831375
Heightened Def Con from 0.00831375 to 0.00831375
Heightened Def Con from 0.00831375 to 0.00831375
Heightened Def Con from 0.00833875 +++to 0.00833875
Heightened Def Con from 0.00833875 ++++to 0.00833875
Heightened Def Con from 0.00833875 ++++to 0.00833875
Heightened Def Con from 0.00833875 +++to 0.00833875
Heightened Def Con from 0.00833875 to 0.00833875
Heightened Def Con from 0.00833875 to 0.00833875
Heightened Def Con from 0.00833875 to 0.00833875
Heightened Def Con from 0.00836375 ++to 0.00836375
Heightened Def Con from 0.00836375 ++to 0.00836375
Heightened Def Con from 0.00836375 +++to 0.00836375
Heightened Def Con from 0.00836375 +++to 0.00836375
Heightened Def Con from 0.00836375 to 0.00836375
Heightened Def Con from 0.00836375 to 0.00836375
Heightened Def Con from 0.00838875 to 0.00838875
Heightened Def Con from 0.00838875 to 0.00838875
Heightened Def Con from 0.00841375 +to 0.00841375
Heightened Def Con from 0.00841375 to 0.00841375
Heightened Def Con from 0.00843875 +++to 0.00843875
Heightened Def Con from 0.00843875 ++to 0.00843875
Heightened Def Con from 0.00843875 +++to 0.00843875
Heightened Def Con from 0.00843875 +++to 0.00843875
Heightened Def Con from 0.00843875 to 0.00843875
Heightened Def Con from 0.00843875 to 0.00843875
Heightened Def Con from 0.00846375 +++to 0.00846375
Heightened Def Con from 0.00846375 to 0.00846375
Heightened Def Con from 0.00846375 to 0.00846375
Heightened Def Con from 0.00847625 to 0.00847625
Heightened Def Con from 0.00848875 to 0.00848875
Heightened Def Con from 0.00848875 to 0.00848875
Heightened Def Con from 0.00848875 to 0.00848875
Heightened Def Con from 0.00851375 ++to 0.00851375
Heightened Def Con from 0.00851375 +++to 0.00851375
Heightened Def Con from 0.00851375 +++to 0.00851375
Heightened Def Con from 0.00851375 +++++to 0.00851375
Heightened Def Con from 0.00851375 ++++to 0.00851375
Heightened Def Con from 0.00851375 ++++to 0.00851375
Heightened Def Con from 0.00851375 to 0.00851375
Heightened Def Con from 0.00853875 +to 0.00853875
Heightened Def Con from 0.00853875 +to 0.00853875
Heightened Def Con from 0.00853875 to 0.00853875
Heightened Def Con from 0.00853875 to 0.00853875
Heightened Def Con from 0.00856375 ++to 0.00856375
Heightened Def Con from 0.00856375 ++to 0.00856375
Heightened Def Con from 0.00856375 ++to 0.00856375
Heightened Def Con from 0.00856375 to 0.00856375
Heightened Def Con from 0.00856375 to 0.00856375
Heightened Def Con from 0.00858875 ++to 0.00858875
Heightened Def Con from 0.00858875 +++to 0.00858875
Heightened Def Con from 0.00858875 +++to 0.00858875
Heightened Def Con from 0.00858875 to 0.00858875
Heightened Def Con from 0.00858875 to 0.00858875
Heightened Def Con from 0.00861375 ++to 0.00861375
Heightened Def Con from 0.00861375 ++to 0.00861375
Heightened Def Con from 0.00861375 ++to 0.00861375
Heightened Def Con from 0.00861375 to 0.00861375
Heightened Def Con from 0.00861375 to 0.00861375
Heightened Def Con from 0.00863875 ++to 0.00863875
Heightened Def Con from 0.00863875 +++to 0.00863875
Heightened Def Con from 0.00863875 +++to 0.00863875
Heightened Def Con from 0.00863875 ++++to 0.00863875
Heightened Def Con from 0.00863875 ++++to 0.00863875
Heightened Def Con from 0.00863875 ++++to 0.00863875
Heightened Def Con from 0.00863875 to 0.00863875
Heightened Def Con from 0.00863875 to 0.00863875
Heightened Def Con from 0.00866375 to 0.00866375
Heightened Def Con from 0.00866375 ++to 0.00866375
Heightened Def Con from 0.00866375 ++to 0.00866375
Heightened Def Con from 0.00866375 to 0.00866375
Heightened Def Con from 0.00868875 ++to 0.00868875
Heightened Def Con from 0.00868875 ++to 0.00868875
Heightened Def Con from 0.00868875 to 0.00868875
Heightened Def Con from 0.00868875 to 0.00868875
Heightened Def Con from 0.00871375 ++to 0.00871375
Heightened Def Con from 0.00871375 +++to 0.00871375
Heightened Def Con from 0.00871375 +++to 0.00871375
Heightened Def Con from 0.00871375 +++to 0.00871375
Heightened Def Con from 0.00871375 +++to 0.00871375
Heightened Def Con from 0.00871375 to 0.00871375
Heightened Def Con from 0.00871375 to 0.00871375
Heightened Def Con from 0.00873875 +to 0.00873875
Heightened Def Con from 0.00873875 to 0.00873875
Heightened Def Con from 0.00873875 to 0.00873875
Heightened Def Con from 0.00876375 ++to 0.00876375
Heightened Def Con from 0.00876375 ++++to 0.00876375
Heightened Def Con from 0.00876375 +++to 0.00876375
Heightened Def Con from 0.00876375 to 0.00876375
Heightened Def Con from 0.00876375 to 0.00876375
Heightened Def Con from 0.00878875 to 0.00878875
Heightened Def Con from 0.00878875 +to 0.00878875
Heightened Def Con from 0.00878875 to 0.00878875
Heightened Def Con from 0.00878875 to 0.00878875
Heightened Def Con from 0.00878875 to 0.00878875
Heightened Def Con from 0.00881375 +to 0.00881375
Heightened Def Con from 0.00881375 to 0.00881375
Heightened Def Con from 0.00883875 +++to 0.00883875
Heightened Def Con from 0.00883875 +to 0.00883875
Heightened Def Con from 0.00883875 to 0.00883875
Heightened Def Con from 0.00883875 to 0.00883875
Heightened Def Con from 0.00883875 to 0.00883875
Heightened Def Con from 0.00885125 to 0.00885125
Heightened Def Con from 0.00886375 to 0.00886375
Heightened Def Con from 0.00886375 to 0.00886375
Heightened Def Con from 0.00886375 to 0.00886375
Heightened Def Con from 0.00886375 to 0.00886375
Heightened Def Con from 0.00886375 +to 0.00886375
Heightened Def Con from 0.00886375 to 0.00886375
Heightened Def Con from 0.00888875 ++to 0.00888875
Heightened Def Con from 0.00888875 +++to 0.00888875
Heightened Def Con from 0.00888875 +++to 0.00888875
Heightened Def Con from 0.00888875 to 0.00888875
Heightened Def Con from 0.00891375 +to 0.00891375
Heightened Def Con from 0.00891375 ++to 0.00891375
Heightened Def Con from 0.00891375 +++to 0.00891375
Heightened Def Con from 0.00891375 +++to 0.00891375
Heightened Def Con from 0.00891375 ++to 0.00891375
Heightened Def Con from 0.00891375 to 0.00891375
Heightened Def Con from 0.00893875 to 0.00893875
Heightened Def Con from 0.00893875 to 0.00893875
Heightened Def Con from 0.00893875 to 0.00893875
Heightened Def Con from 0.00893875 to 0.00893875
Heightened Def Con from 0.00896375 to 0.00896375
Heightened Def Con from 0.00896375 to 0.00896375
Heightened Def Con from 0.00896375 to 0.00896375
Heightened Def Con from 0.00898875 +to 0.00898875
Heightened Def Con from 0.00898875 to 0.00898875
Heightened Def Con from 0.00898875 to 0.00898875
Heightened Def Con from 0.00901375 to 0.00901375
Heightened Def Con from 0.00901375 +to 0.00901375
Heightened Def Con from 0.00901375 +to 0.00901375
Heightened Def Con from 0.00901375 ++to 0.00901375
Heightened Def Con from 0.00901375 ++to 0.00901375
Heightened Def Con from 0.00901375 to 0.00901375
Heightened Def Con from 0.00903875 to 0.00903875
Heightened Def Con from 0.00903875 +++to 0.00903875
Heightened Def Con from 0.00903875 +++to 0.00903875
Heightened Def Con from 0.00903875 to 0.00903875
Heightened Def Con from 0.00903875 to 0.00903875
Heightened Def Con from 0.00906375 +++to 0.00906375
Heightened Def Con from 0.00906375 +to 0.00906375
Heightened Def Con from 0.00906375 ++++to 0.00906375
Heightened Def Con from 0.00906375 ++to 0.00906375
Heightened Def Con from 0.00906375 +to 0.00906375
Heightened Def Con from 0.00906375 to 0.00906375
[...]
Heightened Def Con from 0.0590888 to 0.0590888
Heightened Def Con from 0.0591138 ++to 0.0591138
Heightened Def Con from 0.0591138 ++to 0.0591138
Heightened Def Con from 0.0591138 to 0.0591138
Heightened Def Con from 0.0591262 to 0.0591262
Heightened Def Con from 0.0591388 ++++to 0.0591388
Heightened Def Con from 0.0591388 to 0.0591388
Heightened Def Con from 0.0591638 ++to 0.0591638
Heightened Def Con from 0.0591638 ++to 0.0591638
Heightened Def Con from 0.0591888 +++++to 0.0591888
Heightened Def Con from 0.0591888 +++++to 0.0591888
Heightened Def Con from 0.0591888 to 0.0591888
Heightened Def Con from 0.0592138 ++to 0.0592138
Heightened Def Con from 0.0592138 ++to 0.0592138
Heightened Def Con from 0.0592388 +++to 0.0592388
Heightened Def Con from 0.0592388 to 0.0592388
Heightened Def Con from 0.0592638 ++++to 0.0592638
Heightened Def Con from 0.0592638 +++to 0.0592638
Heightened Def Con from 0.0592638 +++to 0.0592638
Heightened Def Con from 0.0592638 to 0.0592638
Heightened Def Con from 0.0592888 +++to 0.0592888
Heightened Def Con from 0.0592888 +++to 0.0592888
Heightened Def Con from 0.0592888 ++++to 0.0592888
Heightened Def Con from 0.0592888 to 0.0592888
Heightened Def Con from 0.0592888 to 0.0592888
Heightened Def Con from 0.0593138 ++to 0.0593138
Heightened Def Con from 0.0593138 ++to 0.0593138
Heightened Def Con from 0.0593262 to 0.0593263
Heightened Def Con from 0.0593388 +++to 0.0593388
Heightened Def Con from 0.0593388 to 0.0593388
Heightened Def Con from 0.0593388 to 0.0593388
Heightened Def Con from 0.0593638 +++to 0.0593638
Heightened Def Con from 0.0593638 to 0.0593638
Heightened Def Con from 0.0593762 to 0.0593762
Heightened Def Con from 0.0593888 ++to 0.0593888
Heightened Def Con from 0.0593888 ++to 0.0593888
Heightened Def Con from 0.0593888 to 0.0593888
Heightened Def Con from 0.0594138 ++to 0.0594138
Heightened Def Con from 0.0594138 ++to 0.0594138
Heightened Def Con from 0.0594138 to 0.0594138
Heightened Def Con from 0.0594388 ++to 0.0594388
Heightened Def Con from 0.0594388 +++to 0.0594388
Heightened Def Con from 0.0594638 ++++to 0.0594638
Heightened Def Con from 0.0594638 to 0.0594638
Heightened Def Con from 0.0594888 ++to 0.0594888
Heightened Def Con from 0.0594888 ++to 0.0594888
Heightened Def Con from 0.0594888 to 0.0594888
Heightened Def Con from 0.0595012 to 0.0595012
Heightened Def Con from 0.0595138 ++to 0.0595138
Heightened Def Con from 0.0595138 ++to 0.0595138
Heightened Def Con from 0.0595388 ++++to 0.0595388
Heightened Def Con from 0.0595388 to 0.0595388
Heightened Def Con from 0.0595388 to 0.0595388
Heightened Def Con from 0.0595388 to 0.0595388
Heightened Def Con from 0.0595638 ++to 0.0595638
Heightened Def Con from 0.0595638 ++to 0.0595638
Heightened Def Con from 0.0595638 to 0.0595638
Heightened Def Con from 0.0595888 ++to 0.0595888
Heightened Def Con from 0.0595888 +++to 0.0595888
Heightened Def Con from 0.0595888 to 0.0595888
Heightened Def Con from 0.0596138 ++to 0.0596138
Heightened Def Con from 0.0596138 +++to 0.0596138
Heightened Def Con from 0.0596388 ++to 0.0596388
Heightened Def Con from 0.0596388 ++to 0.0596388
Heightened Def Con from 0.0596388 to 0.0596388
Heightened Def Con from 0.0596638 ++++to 0.0596638
Heightened Def Con from 0.0596638 to 0.0596638
Heightened Def Con from 0.0596888 +++to 0.0596888
Heightened Def Con from 0.0596888 to 0.0596888
Heightened Def Con from 0.0596888 to 0.0596888
Heightened Def Con from 0.0597138 ++to 0.0597138
Heightened Def Con from 0.0597138 ++++to 0.0597138
Heightened Def Con from 0.0597138 to 0.0597138
Heightened Def Con from 0.0597138 to 0.0597138
Heightened Def Con from 0.0597388 ++++to 0.0597388
Heightened Def Con from 0.0597388 to 0.0597388
Heightened Def Con from 0.0597638 ++to 0.0597638
Heightened Def Con from 0.0597638 +++to 0.0597638
Heightened Def Con from 0.0597638 ++to 0.0597638
Heightened Def Con from 0.0597638 to 0.0597638
Heightened Def Con from 0.0597888 ++to 0.0597888
Heightened Def Con from 0.0597888 +++++to 0.0597888
Heightened Def Con from 0.0597888 +++++to 0.0597888
Heightened Def Con from 0.0597888 +++++to 0.0597888
Heightened Def Con from 0.0597888 to 0.0597888
Heightened Def Con from 0.0598138 ++to 0.0598138
Heightened Def Con from 0.0598138 ++to 0.0598138
Heightened Def Con from 0.0598138 to 0.0598138
Heightened Def Con from 0.0598388 +++to 0.0598388
Heightened Def Con from 0.0598388 to 0.0598388
Heightened Def Con from 0.0598638 ++++to 0.0598638
Heightened Def Con from 0.0598638 +to 0.0598638
Heightened Def Con from 0.0598888 ++to 0.0598888
Heightened Def Con from 0.0598888 ++to 0.0598888
Heightened Def Con from 0.0598888 to 0.0598888
Heightened Def Con from 0.0599013 to 0.0599013
Heightened Def Con from 0.0599138 ++++to 0.0599138
Heightened Def Con from 0.0599138 to 0.0599138
Heightened Def Con from 0.0599138 to 0.0599138
Heightened Def Con from 0.0599388 ++++to 0.0599388
Heightened Def Con from 0.0599388 to 0.0599388
Heightened Def Con from 0.0599388 to 0.0599388
Heightened Def Con from 0.0599388 to 0.0599388
Heightened Def Con from 0.0599388 to 0.0599388
Heightened Def Con from 0.0599513 to 0.0599513
Heightened Def Con from 0.0599638 ++++to 0.0599638
Heightened Def Con from 0.0599638 to 0.0599638
Heightened Def Con from 0.0599888 ++++to 0.0599888
Heightened Def Con from 0.0599888 to 0.0599888
Heightened Def Con from 0.0600138 +++to 0.0600138
Heightened Def Con from 0.0600138 to 0.0600138
Heightened Def Con from 0.0600388 ++to 0.0600388
Heightened Def Con from 0.0600388 ++to 0.0600388
Heightened Def Con from 0.0600388 to 0.0600388
Heightened Def Con from 0.0600638 +++to 0.0600638
Heightened Def Con from 0.0600638 +++to 0.0600638
Heightened Def Con from 0.0600638 ++++to 0.0600638
Heightened Def Con from 0.0600638 to 0.0600638
Heightened Def Con from 0.0600888 ++++to 0.0600888
Heightened Def Con from 0.0600888 to 0.0600888
Heightened Def Con from 0.0601138 ++to 0.0601138
Heightened Def Con from 0.0601138 ++to 0.0601138
Heightened Def Con from 0.0601138 to 0.0601138
Heightened Def Con from 0.0601388 ++to 0.0601388
Heightened Def Con from 0.0601388 ++to 0.0601388
Heightened Def Con from 0.0601638 +++to 0.0601638
Heightened Def Con from 0.0601638 +++to 0.0601638
Heightened Def Con from 0.0601638 to 0.0601638
Heightened Def Con from 0.0601888 ++++to 0.0601888
Heightened Def Con from 0.0601888 ++++to 0.0601888
Heightened Def Con from 0.0601888 ++++to 0.0601888
Heightened Def Con from 0.0601888 to 0.0601888
Heightened Def Con from 0.0601888 to 0.0601888
Heightened Def Con from 0.0602138 ++++to 0.0602138
Heightened Def Con from 0.0602138 to 0.0602138
Heightened Def Con from 0.0602138 to 0.0602138
Heightened Def Con from 0.0602388 ++to 0.0602388
Heightened Def Con from 0.0602388 ++to 0.0602388
Heightened Def Con from 0.0602388 to 0.0602388
Heightened Def Con from 0.0602388 to 0.0602388
Heightened Def Con from 0.0602638 ++++to 0.0602638
Heightened Def Con from 0.0602638 to 0.0602638
Heightened Def Con from 0.0602888 ++++to 0.0602888
Heightened Def Con from 0.0602888 +to 0.0602888
Heightened Def Con from 0.0602888 to 0.0602888
Heightened Def Con from 0.0603137 ++to 0.0603138
Heightened Def Con from 0.0603138 ++to 0.0603138
Heightened Def Con from 0.0603138 to 0.0603138
Heightened Def Con from 0.0603138 to 0.0603138
Heightened Def Con from 0.0603388 ++++to 0.0603388
Heightened Def Con from 0.0603388 to 0.0603388
Heightened Def Con from 0.0603638 +++to 0.0603638
Heightened Def Con from 0.0603638 +++to 0.0603638
Heightened Def Con from 0.0603638 ++++to 0.0603638
Heightened Def Con from 0.0603638 to 0.0603638
Heightened Def Con from 0.0603762 to 0.0603763
Heightened Def Con from 0.0603888 ++++to 0.0603888
Heightened Def Con from 0.0603888 +to 0.0603888
Heightened Def Con from 0.0603888 to 0.0603888
Heightened Def Con from 0.0604138 +++to 0.0604138
Heightened Def Con from 0.0604138 ++++to 0.0604138
Heightened Def Con from 0.0604138 ++++to 0.0604138
Heightened Def Con from 0.0604387 +++to 0.0604388
Heightened Def Con from 0.0604388 +++to 0.0604388
Heightened Def Con from 0.0604388 ++to 0.0604388
Heightened Def Con from 0.0604388 to 0.0604388
Heightened Def Con from 0.0604513 to 0.0604513
Heightened Def Con from 0.0604638 ++to 0.0604638
Heightened Def Con from 0.0604638 ++to 0.0604638
Heightened Def Con from 0.0604638 to 0.0604638
Heightened Def Con from 0.0604888 ++to 0.0604888
Heightened Def Con from 0.0604888 ++to 0.0604888
Heightened Def Con from 0.0605138 ++++to 0.0605138
Heightened Def Con from 0.0605138 to 0.0605138
Heightened Def Con from 0.0605388 +++to 0.0605388
Heightened Def Con from 0.0605388 to 0.0605388
Heightened Def Con from 0.0605388 to 0.0605388
Heightened Def Con from 0.0605388 to 0.0605388
Heightened Def Con from 0.0605638 ++to 0.0605638
Heightened Def Con from 0.0605638 ++to 0.0605638
Heightened Def Con from 0.0605888 ++++to 0.0605888
Heightened Def Con from 0.0605888 to 0.0605888
Heightened Def Con from 0.0606138 ++++to 0.0606138
Heightened Def Con from 0.0606138 to 0.0606138
Heightened Def Con from 0.0606388 ++to 0.0606388
Heightened Def Con from 0.0606388 ++to 0.0606388
Heightened Def Con from 0.0606638 ++to 0.0606638
Heightened Def Con from 0.0606638 ++to 0.0606638
Heightened Def Con from 0.0606638 to 0.0606638
Heightened Def Con from 0.0606888 ++++to 0.0606888
Heightened Def Con from 0.0606888 to 0.0606888
Heightened Def Con from 0.0607013 to 0.0607013
Heightened Def Con from 0.0607138 ++to 0.0607138
Heightened Def Con from 0.0607138 ++to 0.0607138
Heightened Def Con from 0.0607388 ++to 0.0607388
Heightened Def Con from 0.0607388 ++to 0.0607388
Heightened Def Con from 0.0607512 to 0.0607512
Heightened Def Con from 0.0607638 ++to 0.0607638
Heightened Def Con from 0.0607638 ++to 0.0607638
Heightened Def Con from 0.0607638 to 0.0607638
Heightened Def Con from 0.0607888 ++to 0.0607888
Heightened Def Con from 0.0607888 ++to 0.0607888
Heightened Def Con from 0.0607888 to 0.0607888
Heightened Def Con from 0.0608138 ++to 0.0608138
Heightened Def Con from 0.0608138 ++to 0.0608138
Heightened Def Con from 0.0608138 to 0.0608138
Heightened Def Con from 0.0608388 ++to 0.0608388
Heightened Def Con from 0.0608388 ++to 0.0608388
Heightened Def Con from 0.0608512 to 0.0608512
Heightened Def Con from 0.0608638 ++++to 0.0608638
Heightened Def Con from 0.0608638 to 0.0608638
Heightened Def Con from 0.0608763 to 0.0608763
Heightened Def Con from 0.0608888 ++++++++to 0.0608888
Heightened Def Con from 0.0608888 +++++++to 0.0608888
Heightened Def Con from 0.0608888 to 0.0608888
Heightened Def Con from 0.0609138 ++++to 0.0609138
Heightened Def Con from 0.0609138 to 0.0609138
Heightened Def Con from 0.0609388 +++to 0.0609388
Heightened Def Con from 0.0609388 +++to 0.0609388
Heightened Def Con from 0.0609388 ++to 0.0609388
Heightened Def Con from 0.0609388 to 0.0609388
Heightened Def Con from 0.0609638 ++++to 0.0609638
Heightened Def Con from 0.0609638 to 0.0609638
Heightened Def Con from 0.0609888 ++++to 0.0609888
Heightened Def Con from 0.0609888 to 0.0609888
Heightened Def Con from 0.0610138 ++to 0.0610138
Heightened Def Con from 0.0610138 ++to 0.0610138
Heightened Def Con from 0.0610138 +to 0.0610138
Heightened Def Con from 0.0610388 ++to 0.0610388
Heightened Def Con from 0.0610388 +++to 0.0610388
Heightened Def Con from 0.0610638 ++to 0.0610638
Heightened Def Con from 0.0610638 ++to 0.0610638
Heightened Def Con from 0.0610638 to 0.0610638
Heightened Def Con from 0.0610762 to 0.0610763
Heightened Def Con from 0.0610888 ++to 0.0610888
Heightened Def Con from 0.0610888 ++++to 0.0610888
Heightened Def Con from 0.0610888 to 0.0610888
Heightened Def Con from 0.0611138 +++to 0.0611138
Heightened Def Con from 0.0611138 +++to 0.0611138
Heightened Def Con from 0.0611138 ++to 0.0611138
Heightened Def Con from 0.0611388 +++to 0.0611388
Heightened Def Con from 0.0611388 ++++to 0.0611388
Heightened Def Con from 0.0611388 ++++to 0.0611388
Heightened Def Con from 0.0611388 ++++to 0.0611388
Heightened Def Con from 0.0611388 to 0.0611388
Heightened Def Con from 0.0611638 ++to 0.0611638
Heightened Def Con from 0.0611638 ++++to 0.0611638
Heightened Def Con from 0.0611888 ++to 0.0611888
Heightened Def Con from 0.0611888 ++to 0.0611888
Heightened Def Con from 0.0612138 ++++to 0.0612138
Heightened Def Con from 0.0612138 to 0.0612138
Heightened Def Con from 0.0612388 ++to 0.0612388
Heightened Def Con from 0.0612388 ++to 0.0612388
Heightened Def Con from 0.0612388 to 0.0612388
Heightened Def Con from 0.0612638 ++to 0.0612638
Heightened Def Con from 0.0612638 ++to 0.0612638
Heightened Def Con from 0.0612888 ++++to 0.0612888
Heightened Def Con from 0.0612888 to 0.0612888
Heightened Def Con from 0.0613012 to 0.0613013
Heightened Def Con from 0.0613138 ++++to 0.0613138
Heightened Def Con from 0.0613138 ++++to 0.0613138
Heightened Def Con from 0.0613138 to 0.0613138
Heightened Def Con from 0.0613138 to 0.0613138
Heightened Def Con from 0.0613388 ++++to 0.0613388
Heightened Def Con from 0.0613388 to 0.0613388
Heightened Def Con from 0.0613638 ++to 0.0613638
Heightened Def Con from 0.0613638 ++to 0.0613638
Heightened Def Con from 0.0613638 to 0.0613638
Heightened Def Con from 0.0613888 +++to 0.0613888
Heightened Def Con from 0.0613888 ++++to 0.0613888
Heightened Def Con from 0.0613888 ++++to 0.0613888
Heightened Def Con from 0.0613888 to 0.0613888
Heightened Def Con from 0.0614138 ++to 0.0614138
Heightened Def Con from 0.0614138 ++to 0.0614138
Heightened Def Con from 0.0614138 to 0.0614138
Heightened Def Con from 0.0614388 ++to 0.0614388
Heightened Def Con from 0.0614388 ++to 0.0614388
Heightened Def Con from 0.0614512 to 0.0614513
Heightened Def Con from 0.0614638 ++++to 0.0614638
Heightened Def Con from 0.0614638 +to 0.0614638
Heightened Def Con from 0.0614638 to 0.0614638
Heightened Def Con from 0.0614888 +++to 0.0614888
Heightened Def Con from 0.0614888 +++to 0.0614888
Heightened Def Con from 0.0614888 ++++to 0.0614888
Heightened Def Con from 0.0614888 to 0.0614888
Heightened Def Con from 0.0615138 ++to 0.0615138
Heightened Def Con from 0.0615138 +++to 0.0615138
Heightened Def Con from 0.0615138 to 0.0615138
Heightened Def Con from 0.0615388 +++to 0.0615388
Heightened Def Con from 0.0615388 to 0.0615388
Heightened Def Con from 0.0615638 +++to 0.0615638
Heightened Def Con from 0.0615638 to 0.0615638
Heightened Def Con from 0.0615638 to 0.0615638
Heightened Def Con from 0.0615888 ++++to 0.0615888
Heightened Def Con from 0.0615888 to 0.0615888
Heightened Def Con from 0.0615888 to 0.0615888
Heightened Def Con from 0.0616138 ++to 0.0616138
Heightened Def Con from 0.0616138 ++to 0.0616138
Heightened Def Con from 0.0616138 to 0.0616138
Heightened Def Con from 0.0616388 ++++to 0.0616388
Heightened Def Con from 0.0616388 +to 0.0616388
Heightened Def Con from 0.0616388 to 0.0616388
Heightened Def Con from 0.0616638 ++to 0.0616638
Heightened Def Con from 0.0616638 ++to 0.0616638
Heightened Def Con from 0.0616638 to 0.0616638
Heightened Def Con from 0.0616888 ++to 0.0616888
Heightened Def Con from 0.0616888 ++to 0.0616888
Heightened Def Con from 0.0617138 ++to 0.0617138
Heightened Def Con from 0.0617138 ++to 0.0617138
Heightened Def Con from 0.0617388 +++to 0.0617388
Heightened Def Con from 0.0617388 to 0.0617388
Heightened Def Con from 0.0617638 ++to 0.0617638
Heightened Def Con from 0.0617638 ++to 0.0617638
Heightened Def Con from 0.0617638 to 0.0617638
Heightened Def Con from 0.0617888 ++to 0.0617888
Heightened Def Con from 0.0617888 ++++to 0.0617888
Heightened Def Con from 0.0617888 ++++to 0.0617888
Heightened Def Con from 0.0617888 ++++to 0.0617888
Heightened Def Con from 0.0618138 +++to 0.0618138
Heightened Def Con from 0.0618138 to 0.0618138
Heightened Def Con from 0.0618388 ++to 0.0618388
Heightened Def Con from 0.0618388 ++to 0.0618388
Heightened Def Con from 0.0618388 to 0.0618388
Heightened Def Con from 0.0618638 ++++to 0.0618638
Heightened Def Con from 0.0618638 to 0.0618638
Heightened Def Con from 0.0618888 ++to 0.0618888
Heightened Def Con from 0.0618888 ++to 0.0618888
Heightened Def Con from 0.0619138 ++++to 0.0619138
Heightened Def Con from 0.0619138 to 0.0619138
Heightened Def Con from 0.0619388 ++++to 0.0619388
Heightened Def Con from 0.0619388 to 0.0619388
Heightened Def Con from 0.0619638 ++to 0.0619638
Heightened Def Con from 0.0619638 +++to 0.0619638
Heightened Def Con from 0.0619638 +++to 0.0619638
Heightened Def Con from 0.0619638 to 0.0619638
Heightened Def Con from 0.0619888 ++++to 0.0619888
Heightened Def Con from 0.0619888 +++++++to 0.0619888
Heightened Def Con from 0.0620137 ++to 0.0620138
Heightened Def Con from 0.0620138 ++to 0.0620138
Heightened Def Con from 0.0620138 to 0.0620138
Heightened Def Con from 0.0620138 to 0.0620138
Heightened Def Con from 0.0620388 ++++to 0.0620388
Heightened Def Con from 0.0620388 to 0.0620388
Heightened Def Con from 0.0620513 to 0.0620513
Heightened Def Con from 0.0620638 +++to 0.0620638
Heightened Def Con from 0.0620638 to 0.0620638
Heightened Def Con from 0.0620638 to 0.0620638
Heightened Def Con from 0.0620888 ++++to 0.0620888
Heightened Def Con from 0.0620888 to 0.0620888
Heightened Def Con from 0.0621138 +++++to 0.0621138
Heightened Def Con from 0.0621138 +++to 0.0621138
Heightened Def Con from 0.0621138 ++to 0.0621138
Heightened Def Con from 0.0621138 to 0.0621138
Heightened Def Con from 0.0621138 to 0.0621138
Heightened Def Con from 0.0621262 to 0.0621262
Heightened Def Con from 0.0621388 +++to 0.0621388
Heightened Def Con from 0.0621388 to 0.0621388
Heightened Def Con from 0.0621638 +++to 0.0621638
Heightened Def Con from 0.0621638 to 0.0621638
Heightened Def Con from 0.0621638 to 0.0621638
Heightened Def Con from 0.0621763 to 0.0621763
Heightened Def Con from 0.0621888 ++++to 0.0621888
Heightened Def Con from 0.0621888 to 0.0621888
Heightened Def Con from 0.0622138 ++++to 0.0622138
Heightened Def Con from 0.0622138 to 0.0622138
Heightened Def Con from 0.0622138 to 0.0622138
Heightened Def Con from 0.0622388 ++to 0.0622388
Heightened Def Con from 0.0622388 +++to 0.0622388
Heightened Def Con from 0.0622638 ++to 0.0622638
Heightened Def Con from 0.0622638 ++to 0.0622638
Heightened Def Con from 0.0622638 to 0.0622638
Heightened Def Con from 0.0622638 to 0.0622638
Heightened Def Con from 0.0622888 ++++to 0.0622888
Heightened Def Con from 0.0622888 to 0.0622888
Heightened Def Con from 0.0623013 to 0.0623013
Heightened Def Con from 0.0623138 ++++to 0.0623138
Heightened Def Con from 0.0623138 ++to 0.0623138
Heightened Def Con from 0.0623138 to 0.0623138
Heightened Def Con from 0.0623388 ++++to 0.0623388
Heightened Def Con from 0.0623388 to 0.0623388
Heightened Def Con from 0.0623638 ++to 0.0623638
Heightened Def Con from 0.0623638 ++to 0.0623638
Heightened Def Con from 0.0623638 to 0.0623638
Heightened Def Con from 0.0623638 to 0.0623638
Heightened Def Con from 0.0623888 ++to 0.0623888
Heightened Def Con from 0.0623888 +++to 0.0623888
Heightened Def Con from 0.0623888 +++++to 0.0623888
Heightened Def Con from 0.0623888 ++++++to 0.0623888
Heightened Def Con from 0.0623888 ++++++to 0.0623888
Heightened Def Con from 0.0623888 to 0.0623888
Heightened Def Con from 0.0624012 to 0.0624012
Heightened Def Con from 0.0624138 +++to 0.0624138
Heightened Def Con from 0.0624138 to 0.0624138
Heightened Def Con from 0.0624388 ++to 0.0624388
Heightened Def Con from 0.0624388 ++++to 0.0624388
Heightened Def Con from 0.0624512 to 0.0624513
Heightened Def Con from 0.0624513 to 0.0624513
Heightened Def Con from 0.0624638 ++to 0.0624638
Heightened Def Con from 0.0624638 +++to 0.0624638
Heightened Def Con from 0.0624888 ++to 0.0624888
Heightened Def Con from 0.0624888 +++to 0.0624888

Date: Fri Mar 25 12:43:34 2022
Total elapsed time: 125.265 seconds.

tnom = 27
temp = 27
method = modified trap
totiter = 6334667
traniter = 6334649
tranpoints = 1617241
accept = 996660
rejected = 640993
matrix size = 108
fillins = 204
solver = Normal
Thread vector: 21.1/4.7[2] 2.5/1.3[2] 2.6/1.6[2] 1.0/1.6[1]  2592/500
Matrix Compiler1: 16.09 KB object code size  3.0/2.5/[0.9]
Matrix Compiler2:     897 opcodes  1.2/[1.3]/1.8

