Circuit: * C:\Users\ashle\OneDrive\Documents\ELECTENG 310\Design-Simulation - part 1\Assignment1_Task2_2_Practical2.asc

Warning: Multiple definitions of model "bc639" Type: BJT
Warning: Multiple definitions of model "ka3529" Type: Diode
Direct Newton iteration failed to find .op point.  (Use ".option noopiter" to skip.)
Starting Gmin stepping
Increasing initial diagonal Gmin to 100
Increasing initial diagonal Gmin to 1000
Gmin = 1000
vernier = 0.5
vernier = 0.25
vernier = 0.125
vernier = 0.0625
Gmin = 969.467
vernier = 0.03125
vernier = 0.015625
vernier = 0.0078125
vernier = 0.00390625
vernier = 0.00195313
Gmin = 976.983
vernier = 0.000976563
vernier = 0.000488281
Gmin = 0
Gmin stepping failed

Starting source stepping with srcstepmethod=0
Source Step = 3.0303%
Source Step = 33.3333%
Source Step = 43.9512%
Source Step = 43.9779%
Source Step = 44.0075%
Source Step = 44.0371%
Source Step = 44.0666%
Source Step = 44.0962%
Source Step = 44.1258%
vernier = 0.00146484
Source Step = 44.1687%
Source Step = 44.2131%
Source Step = 44.2575%
Source Step = 44.3019%
Source Step = 44.3463%
vernier = 0.00219727
Source Step = 44.4084%
Source Step = 44.475%
Source Step = 44.5416%
Source Step = 44.6082%
Source Step = 44.6748%
vernier = 0.0032959
Source Step = 44.7647%
Source Step = 44.8645%
Source Step = 44.9644%
Source Step = 45.0643%
Source Step = 45.1642%
vernier = 0.00494385
Source Step = 45.294%
Source Step = 45.4438%
Source Step = 45.5936%
Source Step = 45.7434%
Source Step = 45.8933%
vernier = 0.00741577
Source Step = 46.0805%
Source Step = 46.3052%
Source Step = 46.53%
Source Step = 46.7547%
Source Step = 46.9794%
vernier = 0.0111237
Source Step = 47.2491%
Source Step = 47.5862%
Source Step = 47.9232%
Source Step = 48.2603%
Source Step = 48.5974%
vernier = 0.0166855
Source Step = 48.985%
Source Step = 49.4907%
Source Step = 49.9963%
Source Step = 50.5019%
Source Step = 51.0075%
vernier = 0.0250282
Source Step = 51.5637%
Source Step = 52.3221%
Source Step = 53.0806%
Source Step = 53.839%
Source Step = 54.5974%
vernier = 0.0375423
Source Step = 55.3938%
Source Step = 56.5314%
Source Step = 57.6691%
Source Step = 58.8067%
Source Step = 59.9444%
Source Step = 61.082%
vernier = 0.0563135
Source Step = 62.7885%
Source Step = 64.495%
Source Step = 66.2014%
Source Step = 67.9079%
Source Step = 69.6144%
vernier = 0.0844703
Source Step = 72.0887%
Source Step = 74.6485%
Source Step = 77.2082%
Source Step = 79.7679%
Source Step = 82.3276%
vernier = 0.126705
Source Step = 85.9112%
Source Step = 89.7507%
Source Step = 90.1707%
Source Step = 90.2307%
Source Step = 90.2906%
Source Step = 90.3506%
Source Step = 90.4106%
Source Step = 90.4706%
Source Step = 90.5306%
Source Step = 90.5906%
Source Step = 90.6506%
Source Step = 90.7106%
Source Step = 90.7706%
Source Step = 90.8306%
Source Step = 90.8906%
vernier = 0.00296966
Source Step = 90.9536%
Source Step = 91.0436%
Source Step = 91.1336%
Source Step = 91.2235%
Source Step = 91.3135%
Source Step = 91.4035%
vernier = 0.00445449
Source Step = 91.5385%
Source Step = 91.6735%
Source Step = 91.8085%
Source Step = 91.9435%
Source Step = 92.0784%
vernier = 0.00668173
Source Step = 92.2742%
Source Step = 92.4766%
Source Step = 92.6791%
Source Step = 92.8816%
Source Step = 93.0841%
vernier = 0.0100226
Source Step = 93.3675%
Source Step = 93.6713%
Source Step = 93.975%
Source Step = 94.2787%
Source Step = 94.5824%
vernier = 0.0150339
Source Step = 94.9924%
Source Step = 95.448%
Source Step = 95.9036%
Source Step = 96.3591%
Source Step = 96.8147%
vernier = 0.0225508
Source Step = 97.407%
Source Step = 98.0903%
Source Step = 98.7737%
Source Step = 99.457%
Source stepping succeeded in finding the operating point.


Date: Sat Mar 19 16:20:57 2022
Total elapsed time: 17.738 seconds.

tnom = 27
temp = 27
method = modified trap
totiter = 839644
traniter = 826658
tranpoints = 183937
accept = 133740
rejected = 50197
matrix size = 111
fillins = 253
solver = Normal
Thread vector: 9.9/5.2[2] 4.4/4.8[1] 7.3/4.1[2] 0.5/1.1[1]  2592/500
Matrix Compiler1:     948 opcodes  3.7/[1.7]/5.2
Matrix Compiler2: 13.20 KB object code size  0.9/2.0/[0.9]

