Circuit: * C:\Users\ashle\OneDrive\Documents\ELECTENG 310\Design-Simulation - part 1\Assignment1_Task2_2_Practical no pullup.asc

Direct Newton iteration for .op point succeeded.

Date: Sat Mar 19 17:42:19 2022
Total elapsed time: 0.201 seconds.

tnom = 27
temp = 27
method = modified trap
totiter = 15833
traniter = 15816
tranpoints = 4004
accept = 3225
rejected = 779
matrix size = 49
fillins = 83
solver = Normal
Matrix Compiler1: 7.05 KB object code size  1.4/0.7/[0.4]
Matrix Compiler2: off  [0.5]/0.6/1.3

