Circuit: * C:\Users\ashle\OneDrive\Documents\ELECTENG 310\Design-Simulation - part 1\Assignment1_Task2_2.asc

Direct Newton iteration failed to find .op point.  (Use ".option noopiter" to skip.)
Starting Gmin stepping
Increasing initial diagonal Gmin to 100
Increasing initial diagonal Gmin to 1000
Gmin = 1000
vernier = 0.5
vernier = 0.25
vernier = 0.125
vernier = 0.0625
Gmin = 969.467
vernier = 0.03125
vernier = 0.015625
vernier = 0.0078125
vernier = 0.00390625
vernier = 0.00195313
Gmin = 976.983
vernier = 0.000976563
vernier = 0.000488281
Gmin = 0
Gmin stepping succeeded in finding the operating point.


Date: Fri Mar 11 21:40:16 2022
Total elapsed time: 1.002 seconds.

tnom = 27
temp = 27
method = modified trap
totiter = 115314
traniter = 113651
tranpoints = 30747
accept = 21727
rejected = 9020
matrix size = 39
fillins = 56
solver = Normal
Matrix Compiler1: 4.27 KB object code size  1.1/0.5/[0.4]
Matrix Compiler2: off  [0.7]/2.2/2.5

