Circuit: * C:\Users\ashle\OneDrive\Documents\ELECTENG 310\Design-Simulation - part 1\Assignment1_Task2_2_Ideal.asc

Direct Newton iteration for .op point succeeded.

Date: Sat Mar 19 15:44:13 2022
Total elapsed time: 0.926 seconds.

tnom = 27
temp = 27
method = modified trap
totiter = 96406
traniter = 96357
tranpoints = 25898
accept = 18639
rejected = 7259
matrix size = 39
fillins = 49
solver = Normal
Matrix Compiler1: 3.83 KB object code size  1.0/0.5/[0.3]
Matrix Compiler2: off  [0.5]/0.7/1.2

