Circuit: * C:\Users\ashle\OneDrive\Documents\ELECTENG 310\Design-Simulation - part 1\EE310_Assignment1_TX_Group_9.asc

Warning: Multiple definitions of model "bc639" Type: BJT
Early termination of direct N-R iteration.
Direct Newton iteration failed to find .op point.  (Use ".option noopiter" to skip.)
Starting Gmin stepping
Increasing initial diagonal Gmin to 100
Increasing initial diagonal Gmin to 1000
Gmin = 1000
vernier = 0.5
vernier = 0.25
vernier = 0.125
vernier = 0.0625
Gmin = 969.467
vernier = 0.03125
vernier = 0.015625
vernier = 0.0078125
vernier = 0.00390625
vernier = 0.00195313
Gmin = 976.983
vernier = 0.000976563
vernier = 0.000488281
Gmin = 0
Gmin stepping succeeded in finding the operating point.

Heightened Def Con from 2.54036e-005 to 2.54036e-005
Heightened Def Con from 0.000353543 to 0.000353544
Heightened Def Con from 0.00133781 to 0.00133782
Heightened Def Con from 0.00230031 to 0.00230031
Heightened Def Con from 0.00275177 to 0.00275177
Heightened Def Con from 0.00308958 to 0.00308958
Heightened Def Con from 0.00328235 to 0.00328236
Heightened Def Con from 0.00352964 to 0.00352964
Heightened Def Con from 0.00398532 to 0.00398532
Heightened Def Con from 0.00433998 to 0.00433999

Date: Sat Mar 19 20:59:39 2022
Total elapsed time: 17.009 seconds.

tnom = 27
temp = 27
method = modified trap
totiter = 353550
traniter = 351949
tranpoints = 81774
accept = 59342
rejected = 22442
matrix size = 136
fillins = 382
solver = Normal
Thread vector: 27.7/14.1[2] 11.6/5.6[2] 22.2/8.9[2] 1.2/5.4[1]  2592/500
Matrix Compiler1: off  [6.7]/8.7/10.9
Matrix Compiler2: 17.57 KB object code size  4.8/11.7/[3.6]

