Circuit: * C:\Users\ashle\OneDrive\Documents\ELECTENG 310\Design-Simulation - part 1\EE310_Assignment1_TX_Group_9(1).asc

Warning: Multiple definitions of model "bc639" Type: BJT
Early termination of direct N-R iteration.
Direct Newton iteration failed to find .op point.  (Use ".option noopiter" to skip.)
Starting Gmin stepping
Increasing initial diagonal Gmin to 100
Increasing initial diagonal Gmin to 1000
Gmin = 1000
vernier = 0.5
vernier = 0.25
vernier = 0.125
vernier = 0.0625
Gmin = 969.467
vernier = 0.03125
vernier = 0.015625
vernier = 0.0078125
vernier = 0.00390625
vernier = 0.00195313
Gmin = 976.983
vernier = 0.000976563
vernier = 0.000488281
Gmin = 0
Gmin stepping succeeded in finding the operating point.

Heightened Def Con from 0.00363769 to 0.00363769

Date: Sun Mar 20 09:28:34 2022
Total elapsed time: 18.256 seconds.

tnom = 27
temp = 27
method = modified trap
totiter = 431012
traniter = 429434
tranpoints = 100200
accept = 72483
rejected = 27718
matrix size = 136
fillins = 455
solver = Normal
Thread vector: 45.6/15.8[2] 6.0/4.8[2] 8.9/4.7[2] 2.1/3.2[1]  2592/500
Matrix Compiler1: 37.80 KB object code size  9.5/5.3/[4.2]
Matrix Compiler2: 18.84 KB object code size  3.6/5.8/[3.4]

