Circuit: * C:\Users\ashle\OneDrive\Documents\ELECTENG 310\Design-Simulation - part 1\led driver.asc

Warning: Multiple definitions of model "bc639" Type: BJT
Warning: Multiple definitions of model "ka3529" Type: Diode
Direct Newton iteration for .op point succeeded.

Date: Fri Mar 18 10:56:53 2022
Total elapsed time: 0.115 seconds.

tnom = 27
temp = 27
method = modified trap
totiter = 2092
traniter = 2082
tranpoints = 1042
accept = 1042
rejected = 0
matrix size = 14
fillins = 0
solver = Normal
Matrix Compiler1: 822 bytes object code size  0.2/0.2/[0.1]
Matrix Compiler2: off  [0.1]/0.2/0.2

