Circuit: * C:\Users\ashle\OneDrive\Documents\ELECTENG 310\Design-Simulation - part 1\new led driver.asc

Warning: Multiple definitions of model "bc639" Type: BJT
Warning: Multiple definitions of model "ka3529" Type: Diode
Limiting rise time of source v1 to 2e-005
Limiting fall time of source v1 to 2e-005
WARNING: Less than two connections to node VSUPPLY.  This node is used by R1.
.OP point found by inspection.

Date: Fri Mar 18 23:18:19 2022
Total elapsed time: 0.208 seconds.

tnom = 27
temp = 27
method = modified trap
totiter = 14156
traniter = 14156
tranpoints = 5484
accept = 4211
rejected = 1273
matrix size = 14
fillins = 4
solver = Normal
Matrix Compiler1: 1.13 KB object code size  0.4/0.2/[0.2]
Matrix Compiler2: 1.19 KB object code size  0.2/0.3/[0.2]

