Circuit: * C:\Users\ashle\OneDrive\Documents\ELECTENG 310\Design-Simulation - part 1\signal conditioning.asc

Direct Newton iteration for .op point succeeded.

Date: Sun Mar 13 10:45:35 2022
Total elapsed time: 0.052 seconds.

tnom = 27
temp = 27
method = modified trap
totiter = 12031
traniter = 12028
tranpoints = 6015
accept = 3623
rejected = 2392
matrix size = 7
fillins = 0
solver = Normal
Matrix Compiler1:      12 opcodes  0.1/[0.0]/0.0
Matrix Compiler2: 381 bytes object code size  0.0/0.1/[0.0]

